<?xml version="1.0" encoding="UTF-8"?>

<!-- generated on 2026-06-11 18:48:15 by Eclipse SUMO netconvert Version 1.18.0
<configuration xmlns:xsi="http://www.w3.org/2001/XMLSchema-instance" xsi:noNamespaceSchemaLocation="http://sumo.dlr.de/xsd/netconvertConfiguration.xsd">

    <input>
        <osm-files value="map.osm"/>
    </input>

    <output>
        <output-file value="map.net.xml"/>
    </output>

    <projection>
        <proj.utm value="true"/>
    </projection>

    <processing>
        <geometry.remove value="true"/>
    </processing>

    <tls_building>
        <tls.guess value="true"/>
    </tls_building>

    <ramp_guessing>
        <ramps.guess value="true"/>
    </ramp_guessing>

    <junctions>
        <junctions.join value="true"/>
    </junctions>

</configuration>
-->

<net version="1.16" junctionCornerDetail="5" limitTurnSpeed="5.50" xmlns:xsi="http://www.w3.org/2001/XMLSchema-instance" xsi:noNamespaceSchemaLocation="http://sumo.dlr.de/xsd/net_file.xsd">

    <location netOffset="-532389.91,-3989880.01" convBoundary="0.00,0.00,1858.32,2460.88" origBoundary="129.359713,36.052898,129.380292,36.075121" projParameter="+proj=utm +zone=52 +ellps=WGS84 +datum=WGS84 +units=m +no_defs"/>

    <type id="highway.footway" priority="1" numLanes="1" speed="2.78" allow="pedestrian" oneway="1" width="2.00"/>
    <type id="highway.primary" priority="12" numLanes="2" speed="27.78" disallow="tram rail_urban rail rail_electric rail_fast ship" oneway="0"/>
    <type id="highway.primary_link" priority="7" numLanes="1" speed="22.22" disallow="tram rail_urban rail rail_electric rail_fast ship" oneway="0"/>
    <type id="highway.residential" priority="3" numLanes="1" speed="13.89" disallow="tram rail_urban rail rail_electric rail_fast ship" oneway="0"/>
    <type id="highway.secondary" priority="11" numLanes="1" speed="27.78" disallow="tram rail_urban rail rail_electric rail_fast ship" oneway="0"/>
    <type id="highway.service" priority="1" numLanes="1" speed="5.56" allow="pedestrian delivery bicycle" oneway="0"/>
    <type id="highway.tertiary" priority="10" numLanes="1" speed="22.22" disallow="tram rail_urban rail rail_electric rail_fast ship" oneway="0"/>
    <type id="highway.unclassified" priority="4" numLanes="1" speed="13.89" disallow="tram rail_urban rail rail_electric rail_fast ship" oneway="0"/>

    <edge id=":10048613643_0" function="internal">
        <lane id=":10048613643_0_0" index="0" disallow="tram rail_urban rail rail_electric rail_fast ship" speed="3.65" length="4.67" shape="1737.25,801.07 1738.68,801.27 1739.39,801.82 1739.37,802.71 1738.64,803.95"/>
    </edge>
    <edge id=":10620768441_0" function="internal">
        <lane id=":10620768441_0_0" index="0" allow="pedestrian delivery bicycle" speed="3.65" length="4.67" shape="241.69,730.10 240.39,729.48 239.88,728.75 240.16,727.90 241.23,726.94"/>
    </edge>
    <edge id=":10620768467_0" function="internal">
        <lane id=":10620768467_0_0" index="0" disallow="tram rail_urban rail rail_electric rail_fast ship" speed="27.78" length="9.41" shape="740.61,869.26 732.25,873.58"/>
    </edge>
    <edge id=":10620768467_1" function="internal">
        <lane id=":10620768467_1_0" index="0" allow="pedestrian delivery bicycle" speed="6.81" length="3.32" shape="740.61,869.26 737.87,870.21 737.45,870.17"/>
    </edge>
    <edge id=":10620768467_7" function="internal">
        <lane id=":10620768467_7_0" index="0" allow="pedestrian delivery bicycle" speed="6.81" length="7.17" shape="737.45,870.17 735.53,870.02 733.60,868.69 732.08,866.22"/>
    </edge>
    <edge id=":10620768467_2" function="internal">
        <lane id=":10620768467_2_0" index="0" allow="pedestrian delivery bicycle" speed="4.97" length="5.08" shape="735.01,864.94 735.75,866.14 736.68,866.78 737.81,866.87 739.14,866.41"/>
    </edge>
    <edge id=":10620768467_3" function="internal">
        <lane id=":10620768467_3_0" index="0" allow="pedestrian delivery bicycle" speed="7.04" length="10.19" shape="735.01,864.94 735.80,867.69 735.60,870.05 734.42,872.01 732.25,873.58"/>
    </edge>
    <edge id=":10620768467_4" function="internal">
        <lane id=":10620768467_4_0" index="0" allow="pedestrian delivery bicycle" speed="3.65" length="4.67" shape="735.01,864.94 734.75,866.36 734.18,867.05 733.29,867.00 732.08,866.22"/>
    </edge>
    <edge id=":10620768467_5" function="internal">
        <lane id=":10620768467_5_0" index="0" allow="pedestrian delivery bicycle" speed="5.27" length="5.28" shape="730.78,870.74 731.86,869.94 732.44,868.92 732.51,867.68 732.08,866.22"/>
    </edge>
    <edge id=":10620768467_6" function="internal">
        <lane id=":10620768467_6_0" index="0" disallow="tram rail_urban rail rail_electric rail_fast ship" speed="27.78" length="9.41" shape="730.78,870.74 739.14,866.41"/>
    </edge>
    <edge id=":12304715900_0" function="internal">
        <lane id=":12304715900_0_0" index="0" disallow="tram rail_urban rail rail_electric rail_fast ship" speed="3.65" length="4.67" shape="1779.90,873.26 1781.31,873.54 1781.99,874.12 1781.93,875.02 1781.13,876.22"/>
    </edge>
    <edge id=":12304715905_0" function="internal">
        <lane id=":12304715905_0_0" index="0" disallow="tram rail_urban rail rail_electric rail_fast ship" speed="13.89" length="5.07" shape="1568.21,948.99 1563.34,950.39"/>
    </edge>
    <edge id=":12304715905_1" function="internal">
        <lane id=":12304715905_1_0" index="0" disallow="tram rail_urban rail rail_electric rail_fast ship" speed="13.89" length="5.05" shape="1562.47,947.31 1567.32,945.92"/>
    </edge>
    <edge id=":12304715910_0" function="internal">
        <lane id=":12304715910_0_0" index="0" allow="pedestrian delivery bicycle" speed="3.65" length="4.67" shape="1616.04,537.56 1617.39,538.06 1617.97,538.74 1617.76,539.61 1616.78,540.67"/>
    </edge>
    <edge id=":13441908795_0" function="internal">
        <lane id=":13441908795_0_0" index="0" disallow="tram rail_urban rail rail_electric rail_fast ship" speed="27.78" length="20.28" shape="1005.99,980.89 1009.84,1000.88"/>
        <lane id=":13441908795_0_1" index="1" disallow="tram rail_urban rail rail_electric rail_fast ship" speed="27.78" length="20.28" shape="1002.85,981.54 1006.69,1001.48"/>
        <lane id=":13441908795_0_2" index="2" disallow="tram rail_urban rail rail_electric rail_fast ship" speed="27.78" length="20.28" shape="999.72,982.18 1003.55,1002.07"/>
        <lane id=":13441908795_0_3" index="3" disallow="tram rail_urban rail rail_electric rail_fast ship" speed="27.78" length="20.28" shape="996.58,982.82 1000.41,1002.67"/>
    </edge>
    <edge id=":13441908795_4" function="internal">
        <lane id=":13441908795_4_0" index="0" disallow="tram rail_urban rail rail_electric rail_fast ship" speed="13.30" length="17.26" shape="1001.91,984.90 1003.55,1002.07"/>
        <lane id=":13441908795_4_1" index="1" disallow="tram rail_urban rail rail_electric rail_fast ship" speed="13.52" length="17.84" shape="1001.91,984.90 1000.41,1002.67"/>
    </edge>
    <edge id=":13441908796_0" function="internal">
        <lane id=":13441908796_0_0" index="0" disallow="tram rail_urban rail rail_electric rail_fast ship" speed="27.78" length="18.09" shape="994.13,1003.59 990.18,985.97"/>
        <lane id=":13441908796_0_1" index="1" disallow="tram rail_urban rail rail_electric rail_fast ship" speed="27.78" length="18.09" shape="997.27,1002.97 993.30,985.27"/>
    </edge>
    <edge id=":13441908796_2" function="internal">
        <lane id=":13441908796_2_0" index="0" disallow="tram rail_urban rail rail_electric rail_fast ship" speed="18.54" length="17.73" shape="997.27,1002.97 996.24,997.27 995.77,992.76 995.93,988.98 996.84,985.48"/>
    </edge>
    <edge id=":1645075280_0" function="internal">
        <lane id=":1645075280_0_0" index="0" disallow="tram rail_urban rail rail_electric rail_fast ship" speed="6.52" length="8.59" shape="888.92,592.91 887.09,591.46 885.21,590.89 883.28,591.22 881.29,592.44"/>
    </edge>
    <edge id=":1645075280_1" function="internal">
        <lane id=":1645075280_1_0" index="0" disallow="tram rail_urban rail rail_electric rail_fast ship" speed="3.65" length="4.67" shape="879.25,589.97 880.69,589.82 881.50,590.18 881.70,591.06 881.29,592.44"/>
    </edge>
    <edge id=":436911721_0" function="internal">
        <lane id=":436911721_0_0" index="0" disallow="tram rail_urban rail rail_electric rail_fast ship" speed="3.65" length="4.67" shape="1694.00,705.57 1695.43,705.81 1696.12,706.38 1696.07,707.27 1695.30,708.49"/>
    </edge>
    <edge id=":4525705483_0" function="internal">
        <lane id=":4525705483_0_0" index="0" disallow="tram rail_urban rail rail_electric rail_fast ship" speed="3.65" length="4.67" shape="166.72,198.47 166.21,197.12 166.36,196.24 167.15,195.82 168.59,195.87"/>
    </edge>
    <edge id=":4525705486_0" function="internal">
        <lane id=":4525705486_0_0" index="0" disallow="tram rail_urban rail rail_electric rail_fast ship" speed="6.03" length="9.07" shape="847.33,820.67 846.40,818.25 844.97,816.93 843.03,816.69 840.59,817.54"/>
    </edge>
    <edge id=":4525705486_1" function="internal">
        <lane id=":4525705486_1_0" index="0" disallow="tram rail_urban rail rail_electric rail_fast ship" speed="20.84" length="14.60" shape="847.33,820.67 844.11,806.42"/>
    </edge>
    <edge id=":4525705486_2" function="internal">
        <lane id=":4525705486_2_0" index="0" disallow="tram rail_urban rail rail_electric rail_fast ship" speed="3.65" length="4.67" shape="847.33,820.67 847.84,819.32 848.53,818.75 849.40,818.96 850.45,819.95"/>
    </edge>
    <edge id=":4525705486_3" function="internal">
        <lane id=":4525705486_3_0" index="0" disallow="tram rail_urban rail rail_electric rail_fast ship" speed="20.84" length="14.58" shape="847.23,805.73 850.45,819.95"/>
    </edge>
    <edge id=":4525705486_4" function="internal">
        <lane id=":4525705486_4_0" index="0" disallow="tram rail_urban rail rail_electric rail_fast ship" speed="9.02" length="14.70" shape="847.23,805.73 847.44,809.28 846.41,812.44 844.12,815.19 840.59,817.54"/>
    </edge>
    <edge id=":4525705486_5" function="internal">
        <lane id=":4525705486_5_0" index="0" disallow="tram rail_urban rail rail_electric rail_fast ship" speed="3.65" length="1.44" shape="847.23,805.73 846.71,807.07"/>
    </edge>
    <edge id=":4525705486_9" function="internal">
        <lane id=":4525705486_9_0" index="0" disallow="tram rail_urban rail rail_electric rail_fast ship" speed="3.65" length="3.23" shape="846.71,807.07 846.02,807.64 845.15,807.42 844.11,806.42"/>
    </edge>
    <edge id=":4525705486_6" function="internal">
        <lane id=":4525705486_6_0" index="0" disallow="tram rail_urban rail rail_electric rail_fast ship" speed="7.69" length="10.47" shape="839.12,814.70 841.73,812.99 843.43,811.05 844.22,808.86 844.11,806.42"/>
    </edge>
    <edge id=":4525705486_7" function="internal">
        <lane id=":4525705486_7_0" index="0" disallow="tram rail_urban rail rail_electric rail_fast ship" speed="7.62" length="2.84" shape="839.12,814.70 841.80,813.77"/>
    </edge>
    <edge id=":4525705486_8" function="internal">
        <lane id=":4525705486_8_0" index="0" disallow="tram rail_urban rail rail_electric rail_fast ship" speed="3.65" length="1.33" shape="839.12,814.70 840.44,814.85"/>
    </edge>
    <edge id=":4525705486_10" function="internal">
        <lane id=":4525705486_10_0" index="0" disallow="tram rail_urban rail rail_electric rail_fast ship" speed="7.62" length="12.41" shape="841.80,813.77 843.22,813.27 846.48,813.67 848.89,815.90 850.45,819.95"/>
    </edge>
    <edge id=":4525705486_11" function="internal">
        <lane id=":4525705486_11_0" index="0" disallow="tram rail_urban rail rail_electric rail_fast ship" speed="3.65" length="3.34" shape="840.44,814.85 840.55,814.86 841.28,815.38 841.29,816.28 840.59,817.54"/>
    </edge>
    <edge id=":4525705487_0" function="internal">
        <lane id=":4525705487_0_0" index="0" disallow="tram rail_urban rail rail_electric rail_fast ship" speed="6.32" length="9.04" shape="692.71,900.71 691.21,898.70 689.45,897.72 687.44,897.77 685.18,898.84"/>
    </edge>
    <edge id=":4525705487_1" function="internal">
        <lane id=":4525705487_1_0" index="0" disallow="tram rail_urban rail rail_electric rail_fast ship" speed="8.01" length="14.46" shape="692.71,900.71 691.30,896.95 691.41,893.67 693.07,890.89 696.25,888.60"/>
    </edge>
    <edge id=":4525705487_2" function="internal">
        <lane id=":4525705487_2_0" index="0" disallow="tram rail_urban rail rail_electric rail_fast ship" speed="3.65" length="4.67" shape="692.71,900.71 692.84,899.27 693.35,898.54 694.25,898.51 695.52,899.18"/>
    </edge>
    <edge id=":4525705487_3" function="internal">
        <lane id=":4525705487_3_0" index="0" disallow="tram rail_urban rail rail_electric rail_fast ship" speed="6.52" length="9.21" shape="697.72,891.44 695.71,892.90 694.67,894.67 694.61,896.77 695.52,899.18"/>
    </edge>
    <edge id=":4525705487_4" function="internal">
        <lane id=":4525705487_4_0" index="0" disallow="tram rail_urban rail rail_electric rail_fast ship" speed="27.78" length="14.57" shape="697.72,891.44 694.48,893.18 691.35,894.97 688.27,896.84 685.18,898.84"/>
    </edge>
    <edge id=":4525705487_5" function="internal">
        <lane id=":4525705487_5_0" index="0" disallow="tram rail_urban rail rail_electric rail_fast ship" speed="3.65" length="1.44" shape="697.72,891.44 696.29,891.28"/>
    </edge>
    <edge id=":4525705487_9" function="internal">
        <lane id=":4525705487_9_0" index="0" disallow="tram rail_urban rail rail_electric rail_fast ship" speed="3.65" length="3.23" shape="696.29,891.28 695.57,890.76 695.56,889.86 696.25,888.60"/>
    </edge>
    <edge id=":4525705487_6" function="internal">
        <lane id=":4525705487_6_0" index="0" disallow="tram rail_urban rail rail_electric rail_fast ship" speed="27.78" length="14.92" shape="683.41,896.18 686.55,894.15 689.73,892.21 692.96,890.37 696.25,888.60"/>
    </edge>
    <edge id=":4525705487_7" function="internal">
        <lane id=":4525705487_7_0" index="0" disallow="tram rail_urban rail rail_electric rail_fast ship" speed="7.85" length="4.25" shape="683.41,896.18 687.05,894.45 687.27,894.44"/>
    </edge>
    <edge id=":4525705487_8" function="internal">
        <lane id=":4525705487_8_0" index="0" disallow="tram rail_urban rail rail_electric rail_fast ship" speed="3.65" length="1.44" shape="683.41,896.18 684.85,896.18"/>
    </edge>
    <edge id=":4525705487_10" function="internal">
        <lane id=":4525705487_10_0" index="0" disallow="tram rail_urban rail rail_electric rail_fast ship" speed="7.85" length="10.28" shape="687.27,894.44 690.28,894.37 693.11,895.95 695.52,899.18"/>
    </edge>
    <edge id=":4525705487_11" function="internal">
        <lane id=":4525705487_11_0" index="0" disallow="tram rail_urban rail rail_electric rail_fast ship" speed="3.65" length="3.23" shape="684.85,896.18 685.62,896.63 685.73,897.51 685.18,898.84"/>
    </edge>
    <edge id=":4525705488_0" function="internal">
        <lane id=":4525705488_0_0" index="0" disallow="tram rail_urban rail rail_electric rail_fast ship" speed="6.08" length="7.64" shape="498.93,1020.07 498.12,1018.14 498.12,1016.41 498.92,1014.87 500.52,1013.53"/>
    </edge>
    <edge id=":4525705488_1" function="internal">
        <lane id=":4525705488_1_0" index="0" disallow="tram rail_urban rail rail_electric rail_fast ship" speed="3.91" length="2.55" shape="502.21,1016.25 501.67,1016.69 501.41,1017.20 501.41,1017.78 501.68,1018.42"/>
    </edge>
    <edge id=":4525714789_0" function="internal">
        <lane id=":4525714789_0_0" index="0" allow="pedestrian delivery bicycle" speed="5.33" length="5.33" shape="538.20,1083.81 536.84,1083.08 535.59,1082.87 534.45,1083.20 533.43,1084.06"/>
    </edge>
    <edge id=":4525714789_1" function="internal">
        <lane id=":4525714789_1_0" index="0" allow="pedestrian delivery bicycle" speed="9.72" length="11.75" shape="538.20,1083.81 535.64,1081.83 533.82,1079.95 532.30,1077.79 530.69,1074.96"/>
    </edge>
    <edge id=":4525714789_2" function="internal">
        <lane id=":4525714789_2_0" index="0" allow="pedestrian delivery bicycle" speed="5.56" length="2.21" shape="538.20,1083.81 536.64,1082.25"/>
    </edge>
    <edge id=":4525714789_3" function="internal">
        <lane id=":4525714789_3_0" index="0" allow="pedestrian delivery bicycle" speed="3.65" length="1.44" shape="538.20,1083.81 537.68,1082.47"/>
    </edge>
    <edge id=":4525714789_16" function="internal">
        <lane id=":4525714789_16_0" index="0" allow="pedestrian delivery bicycle" speed="5.56" length="9.35" shape="536.64,1082.25 536.13,1081.75 535.38,1079.39 535.94,1076.76 537.81,1073.83"/>
    </edge>
    <edge id=":4525714789_17" function="internal">
        <lane id=":4525714789_17_0" index="0" allow="pedestrian delivery bicycle" speed="3.65" length="3.23" shape="537.68,1082.47 537.82,1081.58 538.61,1081.16 540.05,1081.20"/>
    </edge>
    <edge id=":4525714789_4" function="internal">
        <lane id=":4525714789_4_0" index="0" allow="pedestrian delivery bicycle" speed="5.36" length="6.13" shape="540.28,1075.87 539.19,1077.51 538.79,1078.94 539.07,1080.17 540.05,1081.20"/>
    </edge>
    <edge id=":4525714789_5" function="internal">
        <lane id=":4525714789_5_0" index="0" allow="pedestrian delivery bicycle" speed="5.56" length="10.67" shape="540.28,1075.87 533.43,1084.06"/>
    </edge>
    <edge id=":4525714789_6" function="internal">
        <lane id=":4525714789_6_0" index="0" allow="pedestrian delivery bicycle" speed="6.67" length="12.32" shape="540.28,1075.87 537.63,1078.30 535.15,1078.95 532.84,1077.84 530.69,1074.96"/>
    </edge>
    <edge id=":4525714789_7" function="internal">
        <lane id=":4525714789_7_0" index="0" allow="pedestrian delivery bicycle" speed="3.65" length="4.67" shape="540.28,1075.87 538.90,1076.29 538.03,1076.09 537.66,1075.27 537.81,1073.83"/>
    </edge>
    <edge id=":4525714789_8" function="internal">
        <lane id=":4525714789_8_0" index="0" allow="pedestrian delivery bicycle" speed="4.74" length="5.54" shape="533.50,1073.43 534.46,1074.72 535.50,1075.22 536.62,1074.93 537.81,1073.83"/>
    </edge>
    <edge id=":4525714789_9" function="internal">
        <lane id=":4525714789_9_0" index="0" allow="pedestrian delivery bicycle" speed="9.72" length="10.32" shape="533.50,1073.43 534.96,1076.08 536.14,1077.88 537.64,1079.39 540.05,1081.20"/>
    </edge>
    <edge id=":4525714789_10" function="internal">
        <lane id=":4525714789_10_0" index="0" allow="pedestrian delivery bicycle" speed="8.40" length="2.11" shape="533.50,1073.43 534.33,1075.37"/>
    </edge>
    <edge id=":4525714789_11" function="internal">
        <lane id=":4525714789_11_0" index="0" disallow="tram rail_urban rail rail_electric rail_fast ship" speed="3.65" length="1.44" shape="533.50,1073.43 533.37,1074.86"/>
    </edge>
    <edge id=":4525714789_18" function="internal">
        <lane id=":4525714789_18_0" index="0" allow="pedestrian delivery bicycle" speed="8.40" length="9.24" shape="534.33,1075.37 534.81,1076.50 535.24,1079.30 534.78,1081.82 533.43,1084.06"/>
    </edge>
    <edge id=":4525714789_19" function="internal">
        <lane id=":4525714789_19_0" index="0" disallow="tram rail_urban rail rail_electric rail_fast ship" speed="3.65" length="3.23" shape="533.37,1074.86 532.86,1075.60 531.97,1075.63 530.69,1074.96"/>
    </edge>
    <edge id=":4525714789_12" function="internal">
        <lane id=":4525714789_12_0" index="0" allow="pedestrian delivery bicycle" speed="6.93" length="7.48" shape="531.00,1081.99 531.79,1080.60 532.00,1078.96 531.63,1077.09 530.69,1074.96"/>
    </edge>
    <edge id=":4525714789_13" function="internal">
        <lane id=":4525714789_13_0" index="0" allow="pedestrian delivery bicycle" speed="5.56" length="10.63" shape="531.00,1081.99 537.81,1073.83"/>
    </edge>
    <edge id=":4525714789_14" function="internal">
        <lane id=":4525714789_14_0" index="0" allow="pedestrian delivery bicycle" speed="5.56" length="10.16" shape="531.00,1081.99 532.99,1080.26 535.17,1079.55 537.52,1079.86 540.05,1081.20"/>
    </edge>
    <edge id=":4525714789_15" function="internal">
        <lane id=":4525714789_15_0" index="0" allow="pedestrian delivery bicycle" speed="3.65" length="4.67" shape="531.00,1081.99 532.38,1081.59 533.25,1081.80 533.60,1082.63 533.43,1084.06"/>
    </edge>
    <edge id=":4634163424_0" function="internal">
        <lane id=":4634163424_0_0" index="0" allow="pedestrian delivery bicycle" speed="5.89" length="6.80" shape="675.69,1117.14 674.02,1115.97 672.45,1115.51 670.99,1115.74 669.63,1116.67"/>
    </edge>
    <edge id=":4634163424_1" function="internal">
        <lane id=":4634163424_1_0" index="0" allow="pedestrian delivery bicycle" speed="5.56" length="11.14" shape="675.69,1117.14 667.13,1110.02"/>
    </edge>
    <edge id=":4634163424_2" function="internal">
        <lane id=":4634163424_2_0" index="0" allow="pedestrian delivery bicycle" speed="6.68" length="12.14" shape="675.69,1117.14 673.39,1114.47 672.80,1111.99 673.92,1109.71 676.75,1107.61"/>
    </edge>
    <edge id=":4634163424_3" function="internal">
        <lane id=":4634163424_3_0" index="0" allow="pedestrian delivery bicycle" speed="3.65" length="4.67" shape="675.69,1117.14 675.32,1115.75 675.54,1114.88 676.37,1114.54 677.80,1114.73"/>
    </edge>
    <edge id=":4634163424_4" function="internal">
        <lane id=":4634163424_4_0" index="0" allow="pedestrian delivery bicycle" speed="4.75" length="5.49" shape="678.28,1110.42 677.00,1111.37 676.49,1112.40 676.76,1113.52 677.80,1114.73"/>
    </edge>
    <edge id=":4634163424_5" function="internal">
        <lane id=":4634163424_5_0" index="0" disallow="tram rail_urban rail rail_electric rail_fast ship" speed="13.89" length="10.73" shape="678.28,1110.42 675.58,1111.91 673.64,1113.12 671.87,1114.55 669.63,1116.67"/>
    </edge>
    <edge id=":4634163424_6" function="internal">
        <lane id=":4634163424_6_0" index="0" allow="pedestrian delivery bicycle" speed="8.77" length="2.09" shape="678.28,1110.42 676.35,1111.21"/>
    </edge>
    <edge id=":4634163424_14" function="internal">
        <lane id=":4634163424_14_0" index="0" allow="pedestrian delivery bicycle" speed="8.77" length="9.77" shape="676.35,1111.21 675.23,1111.67 672.36,1112.02 669.66,1111.47 667.13,1110.02"/>
    </edge>
    <edge id=":4634163424_7" function="internal">
        <lane id=":4634163424_7_0" index="0" allow="pedestrian delivery bicycle" speed="7.35" length="8.13" shape="669.10,1107.50 670.79,1108.45 672.62,1108.78 674.61,1108.50 676.75,1107.61"/>
    </edge>
    <edge id=":4634163424_8" function="internal">
        <lane id=":4634163424_8_0" index="0" allow="pedestrian delivery bicycle" speed="5.56" length="11.31" shape="669.10,1107.50 677.80,1114.73"/>
    </edge>
    <edge id=":4634163424_9" function="internal">
        <lane id=":4634163424_9_0" index="0" allow="pedestrian delivery bicycle" speed="6.77" length="10.82" shape="669.10,1107.50 671.19,1109.68 671.98,1111.93 671.46,1114.27 669.63,1116.67"/>
    </edge>
    <edge id=":4634163424_10" function="internal">
        <lane id=":4634163424_10_0" index="0" allow="pedestrian delivery bicycle" speed="3.65" length="4.67" shape="669.10,1107.50 669.55,1108.87 669.38,1109.74 668.57,1110.13 667.13,1110.02"/>
    </edge>
    <edge id=":4634163424_11" function="internal">
        <lane id=":4634163424_11_0" index="0" allow="pedestrian delivery bicycle" speed="4.91" length="5.16" shape="667.39,1114.40 668.25,1113.25 668.50,1112.14 668.13,1111.06 667.13,1110.02"/>
    </edge>
    <edge id=":4634163424_12" function="internal">
        <lane id=":4634163424_12_0" index="0" disallow="tram rail_urban rail rail_electric rail_fast ship" speed="13.89" length="11.62" shape="667.39,1114.40 669.73,1112.19 671.75,1110.58 673.93,1109.18 676.75,1107.61"/>
    </edge>
    <edge id=":4634163424_13" function="internal">
        <lane id=":4634163424_13_0" index="0" allow="pedestrian delivery bicycle" speed="7.51" length="1.86" shape="667.39,1114.40 668.90,1113.32"/>
    </edge>
    <edge id=":4634163424_15" function="internal">
        <lane id=":4634163424_15_0" index="0" allow="pedestrian delivery bicycle" speed="7.51" length="9.83" shape="668.90,1113.32 669.80,1112.67 672.35,1112.15 675.01,1112.84 677.80,1114.73"/>
    </edge>
    <edge id=":4634870976_0" function="internal">
        <lane id=":4634870976_0_0" index="0" allow="pedestrian delivery bicycle" speed="3.65" length="4.67" shape="1667.12,650.32 1668.55,650.46 1669.28,650.98 1669.30,651.88 1668.62,653.15"/>
    </edge>
    <edge id=":4635134647_0" function="internal">
        <lane id=":4635134647_0_0" index="0" disallow="tram rail_urban rail rail_electric rail_fast ship" speed="7.37" length="9.86" shape="1492.65,1205.49 1490.54,1204.29 1488.33,1204.00 1486.03,1204.60 1483.64,1206.11"/>
    </edge>
    <edge id=":4635134647_1" function="internal">
        <lane id=":4635134647_1_0" index="0" disallow="tram rail_urban rail rail_electric rail_fast ship" speed="13.89" length="14.28" shape="1492.65,1205.49 1489.84,1203.18 1487.22,1200.86 1484.68,1198.45 1482.10,1195.89"/>
    </edge>
    <edge id=":4635134647_2" function="internal">
        <lane id=":4635134647_2_0" index="0" disallow="tram rail_urban rail rail_electric rail_fast ship" speed="3.65" length="1.44" shape="1492.65,1205.49 1492.21,1204.12"/>
    </edge>
    <edge id=":4635134647_9" function="internal">
        <lane id=":4635134647_9_0" index="0" disallow="tram rail_urban rail rail_electric rail_fast ship" speed="3.65" length="3.23" shape="1492.21,1204.12 1492.40,1203.24 1493.21,1202.87 1494.65,1202.99"/>
    </edge>
    <edge id=":4635134647_3" function="internal">
        <lane id=":4635134647_3_0" index="0" disallow="tram rail_urban rail rail_electric rail_fast ship" speed="13.89" length="13.89" shape="1484.39,1193.65 1486.92,1196.17 1489.36,1198.49 1491.89,1200.72 1494.65,1202.99"/>
    </edge>
    <edge id=":4635134647_4" function="internal">
        <lane id=":4635134647_4_0" index="0" disallow="tram rail_urban rail rail_electric rail_fast ship" speed="7.83" length="4.06" shape="1484.39,1193.65 1486.78,1196.92"/>
    </edge>
    <edge id=":4635134647_5" function="internal">
        <lane id=":4635134647_5_0" index="0" disallow="tram rail_urban rail rail_electric rail_fast ship" speed="3.65" length="1.44" shape="1484.39,1193.65 1484.65,1195.06"/>
    </edge>
    <edge id=":4635134647_10" function="internal">
        <lane id=":4635134647_10_0" index="0" disallow="tram rail_urban rail rail_electric rail_fast ship" speed="7.83" length="10.53" shape="1486.78,1196.92 1487.46,1200.08 1486.41,1203.15 1483.64,1206.11"/>
    </edge>
    <edge id=":4635134647_11" function="internal">
        <lane id=":4635134647_11_0" index="0" disallow="tram rail_urban rail rail_electric rail_fast ship" speed="3.65" length="3.23" shape="1484.65,1195.06 1484.36,1195.91 1483.51,1196.18 1482.10,1195.89"/>
    </edge>
    <edge id=":4635134647_6" function="internal">
        <lane id=":4635134647_6_0" index="0" disallow="tram rail_urban rail rail_electric rail_fast ship" speed="6.30" length="9.04" shape="1481.64,1203.61 1483.35,1201.78 1484.01,1199.88 1483.59,1197.91 1482.10,1195.89"/>
    </edge>
    <edge id=":4635134647_7" function="internal">
        <lane id=":4635134647_7_0" index="0" disallow="tram rail_urban rail rail_electric rail_fast ship" speed="8.74" length="14.22" shape="1481.64,1203.61 1485.03,1201.51 1488.33,1200.70 1491.54,1201.20 1494.65,1202.99"/>
    </edge>
    <edge id=":4635134647_8" function="internal">
        <lane id=":4635134647_8_0" index="0" disallow="tram rail_urban rail rail_electric rail_fast ship" speed="3.65" length="4.67" shape="1481.64,1203.61 1483.07,1203.49 1483.89,1203.86 1484.07,1204.73 1483.64,1206.11"/>
    </edge>
    <edge id=":4635134654_0" function="internal">
        <lane id=":4635134654_0_0" index="0" allow="pedestrian delivery bicycle" speed="5.08" length="5.11" shape="1329.57,816.05 1329.02,814.73 1328.19,813.90 1327.10,813.57 1325.74,813.73"/>
    </edge>
    <edge id=":4635134654_1" function="internal">
        <lane id=":4635134654_1_0" index="0" allow="pedestrian delivery bicycle" speed="5.56" length="9.53" shape="1329.57,816.05 1327.15,806.84"/>
    </edge>
    <edge id=":4635134654_2" function="internal">
        <lane id=":4635134654_2_0" index="0" allow="pedestrian delivery bicycle" speed="6.83" length="10.38" shape="1329.57,816.05 1329.23,813.21 1329.91,810.98 1331.58,809.36 1334.27,808.36"/>
    </edge>
    <edge id=":4635134654_3" function="internal">
        <lane id=":4635134654_3_0" index="0" allow="pedestrian delivery bicycle" speed="3.65" length="4.67" shape="1329.57,816.05 1330.03,814.69 1330.70,814.10 1331.58,814.28 1332.66,815.23"/>
    </edge>
    <edge id=":4635134654_4" function="internal">
        <lane id=":4635134654_4_0" index="0" allow="pedestrian delivery bicycle" speed="4.99" length="5.05" shape="1334.95,811.49 1333.64,811.98 1332.83,812.76 1332.50,813.85 1332.66,815.23"/>
    </edge>
    <edge id=":4635134654_5" function="internal">
        <lane id=":4635134654_5_0" index="0" disallow="tram rail_urban rail rail_electric rail_fast ship" speed="22.22" length="9.48" shape="1334.95,811.49 1325.74,813.73"/>
    </edge>
    <edge id=":4635134654_6" function="internal">
        <lane id=":4635134654_6_0" index="0" allow="pedestrian delivery bicycle" speed="6.99" length="1.77" shape="1334.95,811.49 1333.19,811.63"/>
    </edge>
    <edge id=":4635134654_14" function="internal">
        <lane id=":4635134654_14_0" index="0" allow="pedestrian delivery bicycle" speed="6.99" length="8.50" shape="1333.19,811.63 1332.12,811.71 1329.88,811.01 1328.22,809.38 1327.15,806.84"/>
    </edge>
    <edge id=":4635134654_7" function="internal">