<?xml version="1.0" encoding="UTF-8"?>

<!-- generated on 2026-06-11 18:50:14 by Eclipse SUMO duarouter Version 1.18.0
<configuration xmlns:xsi="http://www.w3.org/2001/XMLSchema-instance" xsi:noNamespaceSchemaLocation="http://sumo.dlr.de/xsd/duarouterConfiguration.xsd">

    <input>
        <net-file value="map.net.xml"/>
        <route-files value="map.trips.xml"/>
    </input>

    <output>
        <output-file value="map.rou.xml"/>
    </output>

    <report>
        <ignore-errors value="true"/>
    </report>

</configuration>
-->

<routes xmlns:xsi="http://www.w3.org/2001/XMLSchema-instance" xsi:noNamespaceSchemaLocation="http://sumo.dlr.de/xsd/routes_file.xsd">
    <vehicle id="2" depart="2.00">
        <route edges="469129696#4 -469129696#4 -469129696#3 -469129696#2 -469129696#1 469129696#1 469129696#2"/>
    </vehicle>
    <vehicle id="6" depart="6.00">
        <route edges="-172242508#12 -172242508#11 -172242508#9 -172242508#8 -172242508#7 -172242508#6 -172242508#5 -172242508#4 -653567184#7 -653567184#6 -653567184#5 -653567184#4 -482877875#4 -482877875#3 -482877875#2 -482877875#1"/>
    </vehicle>
    <vehicle id="7" depart="7.00">
        <route edges="469125592#0 469125592#1 -469125603#1 -469125603#0 653567184#3 653567184#4 653567184#5 653567184#6 653567184#7 172242508#4 172242508#5 172242508#6 172242508#7 172242508#8 172242508#9 172242508#11"/>
    </vehicle>
    <vehicle id="9" depart="9.00">
        <route edges="595139581#1 595139581#2 595139581#3 595139581#4 -595139581#4 -595139581#3 -595139581#2 -595139581#1 -595139581#0 -468988015#5 -468988015#4 -468988015#3 -468988015#2 -468988015#1 -172242508#13 -172242508#12 -172242508#11 -172242508#9 -172242508#8 -172242508#7 -172242508#6 -172242508#5 -172242508#4 -653567184#7 -653567184#6 -653567184#5 -653567184#4 -653567184#3 469125603#0 469125603#1 -1307028822"/>
    </vehicle>
    <vehicle id="10" depart="10.00">
        <route edges="595139581#0 595139581#1 595139581#2 595139581#3 595139581#4 -595139581#4 -595139581#3 -595139581#2 -595139581#1 -595139581#0 -468988015#5 -468988015#4 -468988015#3 -468988015#2 -468988015#1 -172242508#13 -172242508#12 -172242508#11 -172242508#9 -172242508#8 -172242508#7 -172242508#6 -172242508#5 -172242508#4 -653567184#7 -653567184#6 469130220#0"/>
    </vehicle>
    <vehicle id="11" depart="11.00">
        <route edges="-653567184#1 653567184#1 653567184#2 653567184#3 653567184#4 653567184#5 653567184#6 653567184#7 172242508#4 172242508#5 172242508#6 172242508#7 172242508#8 172242508#9 -469130220#2 -469130220#1"/>
    </vehicle>
    <vehicle id="12" depart="12.00">
        <route edges="653567184#4 653567184#5 653567184#6 653567184#7 172242508#4 172242508#5 172242508#6 172242508#7 172242508#8 172242508#9 172242508#11 172242508#12 172242508#13 1311511102#0 1311511102#1 1311511102#2 1311511102#3 -469740052#3 -469740052#1 -469740052#0 600376223#1 600376223#2 600376223#3 600376223#4 600376223#5 600376223#6 620622773#0 -620622773#0"/>
    </vehicle>
    <vehicle id="13" depart="13.00">
        <route edges="-469125603#2 -469125603#1 -469125603#0"/>
    </vehicle>
    <vehicle id="15" depart="15.00">
        <route edges="595139581#1 595139581#2 595139581#3 595139581#4 -595139581#4 -595139581#3 -595139581#2 -595139581#1 -595139581#0 -468988015#5 -468988015#4 -468988015#3 -468988015#2 -468988015#1 -172242508#13 -172242508#12 -172242508#11 -172242508#9 -172242508#8 -172242508#7 -172242508#6 -172242508#5 -172242508#4 -653567184#7 -653567184#6 -482877870#5 -482877870#4 -482877870#3 -482877870#2 -482877870#1 -482877870#0 482877870#0 482877870#1 482877870#2 482877870#3"/>
    </vehicle>
    <vehicle id="16" depart="16.00">
        <route edges="143910601#2 143910601#3 143910601#4 143910601#5 143910601#6 143910601#7 -172242508#13 -172242508#12 -172242508#11 -172242508#9 -172242508#8 -172242508#7 -172242508#6 -172242508#5 -172242508#4 -653567184#7 -653567184#6 -653567184#5 -653567184#4 -653567184#3 -653567184#2 -653567184#1 746655467"/>
    </vehicle>
    <vehicle id="17" depart="17.00">
        <route edges="-653567184#14 469129696#0 469129696#1 469129696#2 -471342274#3 -471342274#2 -471342274#1 -471342274#0 172242508#11 172242508#12"/>
    </vehicle>
    <vehicle id="20" depart="20.00">
        <route edges="469125604#1 -469125603#3 -469125603#2 -469125603#1 -469125603#0 653567184#3 653567184#4 653567184#5 653567184#6 653567184#7 172242508#4 172242508#5 172242508#6 172242508#7 172242508#8 172242508#9 -172242508#9 -172242508#8"/>
    </vehicle>
    <vehicle id="21" depart="21.00">
        <route edges="-595139581#4 -595139581#3 -595139581#2 -595139581#1 -595139581#0 -468988015#5 -468988015#4 -468988015#3 -468988015#2 -468988015#1 1311511102#0 1311511102#1 1311511102#2 1311511102#3 -469740052#3 -469740052#1 -469740052#0 -600376223#0"/>
    </vehicle>
    <vehicle id="22" depart="22.00">
        <route edges="-469125600 653567184#5 653567184#6 653567184#7 172242508#4 172242508#5 172242508#6 172242508#7 172242508#8 172242508#9 172242508#11 172242508#12 172242508#13 1311511102#0 1311511102#1 1311511102#2 1311511102#3 -469740052#3 -469740052#1 596803755#0 596803755#1 -596803754#0"/>
    </vehicle>
    <vehicle id="23" depart="23.00">
        <route edges="-469125603#3 -469125603#2 -469125603#1 -469125603#0 653567184#3 653567184#4 653567184#5 653567184#6 653567184#7 172242508#4 172242508#5 172242508#6 172242508#7 172242508#8 172242508#9 172242508#11 172242508#12 172242508#13 1311511102#0 1311511102#1 1311511102#2 1311511102#3 -469740052#3 -469740052#1 -469740052#0 -600376223#0"/>
    </vehicle>
    <vehicle id="25" depart="25.00">
        <route edges="-653567184#14 469129696#0 469129696#1 469129696#2 469129696#3 469129696#4 1032035623#0 1032035623#1 1032035623#2 468988015#1 468988015#2 468988015#3 468988015#4 468988015#5 595139581#0 595139581#1 595139581#2 595139581#3 595139581#4 -595139581#4 -595139581#3 -595139581#2 -595139581#1 -595139581#0"/>
    </vehicle>
    <vehicle id="26" depart="26.00">
        <route edges="-595139581#4 -595139581#3 -595139581#2 -595139581#1 -595139581#0 -468988015#5 -468988015#4 -468988015#3 -468988015#2 -468988015#1 -172242508#13 -172242508#12 -172242508#11 471342274#0 471342274#1 471342274#2 471342274#3 -469129696#2 -469129696#1 -469129696#0 653567184#14"/>
    </vehicle>
    <vehicle id="27" depart="27.00">
        <route edges="469125592#0 469125592#1"/>
    </vehicle>
    <vehicle id="28" depart="28.00">
        <route edges="-482877875#1 -482877875#0 482877875#0 482877875#1 482877875#2 482877875#3 482877875#4 653567184#4 653567184#5 -482877870#5 -482877870#4 -482877870#3 -482877870#2 -482877870#1 -482877870#0 482877870#0 482877870#1 482877870#2 482877870#3"/>
    </vehicle>
    <vehicle id="29" depart="29.00">
        <route edges="-482877870#1 -482877870#0 482877870#0 482877870#1 482877870#2 482877870#3 482877870#4 482877870#5 653567184#6 653567184#7 -653567184#7 -653567184#6"/>
    </vehicle>
    <vehicle id="31" depart="31.00">
        <route edges="143910601#3 143910601#4 143910601#5 143910601#6 143910601#7 -172242508#13 -172242508#12 -172242508#11 471342274#0 471342274#1 471342274#2 471342274#3 469129696#3"/>
    </vehicle>
    <vehicle id="33" depart="33.00">
        <route edges="-595139581#4 -595139581#3 -595139581#2 -595139581#1 -595139581#0 -468988015#5 -468988015#4 -468988015#3 -468988015#2 -468988015#1 -172242508#13 -172242508#12 -172242508#11 -172242508#9 -172242508#8 -172242508#7 -172242508#6 -172242508#5 -172242508#4 -172242508#3 -172242508#2"/>
    </vehicle>
    <vehicle id="34" depart="34.00">
        <route edges="-600376223#3 -600376223#2 -600376223#1 -600376223#0"/>
    </vehicle>
    <vehicle id="35" depart="35.00">
        <route edges="-595139581#4 -595139581#3 -595139581#2 -595139581#1 -595139581#0 -468988015#5 -468988015#4 -468988015#3 -468988015#2 -468988015#1 -172242508#13 -172242508#12 -172242508#11 471342274#0 471342274#1 471342274#2 471342274#3 -469129696#2 -469129696#1 -469129696#0 653567184#14"/>
    </vehicle>
    <vehicle id="36" depart="36.00">
        <route edges="600376223#0 600376223#1 600376223#2 -600376223#2"/>
    </vehicle>
    <vehicle id="37" depart="37.00">
        <route edges="469125592#1 -469125603#1 -469125603#0 653567184#3 653567184#4 653567184#5 653567184#6 653567184#7 172242508#4 172242508#5 172242508#6 172242508#7 172242508#8 172242508#9 172242508#11 172242508#12 172242508#13 1311511102#0 1311511102#1 1311511102#2 1311511102#3 -469740052#3 -469740052#1 -469740052#0 600376223#1 600376223#2 600376223#3 600376223#4 600376223#5 670686696#0 -846270090#0"/>
    </vehicle>
    <vehicle id="39" depart="39.00">
        <route edges="-595139581#4 -595139581#3 -595139581#2 -595139581#1 -595139581#0 -468988015#5 -468988015#4 -468988015#3 -468988015#2 -468988015#1 1311511102#0 1311511102#1 1311511102#2 1311511102#3 -469740052#3 -469740052#1 -469740052#0 600376223#1 600376223#2 600376223#3 600376223#4 661666599 -596803754#2"/>
    </vehicle>
    <vehicle id="40" depart="40.00">
        <route edges="143910601#4 143910601#5 143910601#6 143910601#7 1311511102#0 1311511102#1 1311511102#2 1311511102#3 -469740052#3 -469740052#1 -469740052#0 -600376223#0"/>
    </vehicle>
    <vehicle id="41" depart="41.00">
        <route edges="172242508#1 172242508#2 172242508#3 -653567184#7 -653567184#6 -653567184#5 -653567184#4 -653567184#3 -653567184#2 -653567184#1 653567184#1"/>
    </vehicle>
    <vehicle id="42" depart="42.00">
        <route edges="-653567184#6 653567184#6 653567184#7 172242508#4 172242508#5 172242508#6 172242508#7 172242508#8 172242508#9 172242508#11 172242508#12 172242508#13 468988015#1 468988015#2 468988015#3 468988015#4 468988015#5 595139581#0 595139581#1 595139581#2 595139581#3 595139581#4 -595139581#4 -595139581#3 -595139581#2 -595139581#1"/>
    </vehicle>
    <vehicle id="44" depart="44.00">
        <route edges="-469125603#1 -469125603#0 653567184#3 653567184#4 653567184#5 653567184#6 653567184#7 172242508#4 172242508#5 172242508#6 172242508#7 172242508#8 172242508#9 -172242508#9 -172242508#8"/>
    </vehicle>
    <vehicle id="45" depart="45.00">
        <route edges="-469125605 -469125603#3 -469125603#2 -469125603#1 -469125603#0 469125603#0"/>
    </vehicle>
    <vehicle id="46" depart="46.00">
        <route edges="482877875#1 482877875#2 482877875#3 482877875#4 653567184#4 653567184#5 653567184#6 653567184#7 172242508#4 172242508#5 172242508#6 172242508#7 172242508#8 172242508#9 172242508#11 172242508#12 172242508#13 1307028824#0 1307028824#1"/>
    </vehicle>
    <vehicle id="49" depart="49.00">
        <route edges="670686696#0 -670686696#0 -600376223#5 -600376223#4 -600376223#3 -600376223#2 -600376223#1 600376223#1"/>
    </vehicle>
</routes>
