<?xml version="1.0" encoding="UTF-8"?>

<!-- generated on 2026-06-11 18:50:06.480374 by randomTrips.py UNKNOWN
<configuration>
    <net-file value="map.net.xml"/>
    <output-trip-file value="map.trips.xml"/>
    <length value="True"/>
    <end value="50.0"/>
</configuration>
-->

<routes xmlns:xsi="http://www.w3.org/2001/XMLSchema-instance" xsi:noNamespaceSchemaLocation="http://sumo.dlr.de/xsd/routes_file.xsd">
    <trip id="0" depart="0.00" from="469114688#1" to="-172242508#11"/>
    <trip id="1" depart="1.00" from="-596803754#0" to="-595139581#1"/>
    <trip id="2" depart="2.00" from="469129696#4" to="469129696#2"/>
    <trip id="3" depart="3.00" from="600376223#1" to="-469125592#0"/>
    <trip id="4" depart="4.00" from="-846270090#1" to="-172242508#12"/>
    <trip id="5" depart="5.00" from="-595139581#4" to="143910601#3"/>
    <trip id="6" depart="6.00" from="-172242508#12" to="-482877875#1"/>
    <trip id="7" depart="7.00" from="469125592#0" to="172242508#11"/>
    <trip id="8" depart="8.00" from="-595139581#4" to="469114688#1"/>
    <trip id="9" depart="9.00" from="595139581#1" to="-1307028822"/>
    <trip id="10" depart="10.00" from="595139581#0" to="469130220#0"/>
    <trip id="11" depart="11.00" from="-653567184#1" to="-469130220#1"/>
    <trip id="12" depart="12.00" from="653567184#4" to="-620622773#0"/>
    <trip id="13" depart="13.00" from="-469125603#2" to="-469125603#0"/>
    <trip id="14" depart="14.00" from="596803756#1" to="469125592#0"/>
    <trip id="15" depart="15.00" from="595139581#1" to="482877870#3"/>
    <trip id="16" depart="16.00" from="143910601#2" to="746655467"/>
    <trip id="17" depart="17.00" from="-653567184#14" to="172242508#12"/>
    <trip id="18" depart="18.00" from="596803754#2" to="469125600"/>
    <trip id="19" depart="19.00" from="600376223#0" to="468988015#3"/>
    <trip id="20" depart="20.00" from="469125604#1" to="-172242508#8"/>
    <trip id="21" depart="21.00" from="-595139581#4" to="-600376223#0"/>
    <trip id="22" depart="22.00" from="-469125600" to="-596803754#0"/>
    <trip id="23" depart="23.00" from="-469125603#3" to="-600376223#0"/>
    <trip id="24" depart="24.00" from="469114688#1" to="-653567184#2"/>
    <trip id="25" depart="25.00" from="-653567184#14" to="-595139581#0"/>
    <trip id="26" depart="26.00" from="-595139581#4" to="653567184#14"/>
    <trip id="27" depart="27.00" from="469125592#0" to="469125592#1"/>
    <trip id="28" depart="28.00" from="-482877875#1" to="482877870#3"/>
    <trip id="29" depart="29.00" from="-482877870#1" to="-653567184#6"/>
    <trip id="30" depart="30.00" from="886504719#0" to="469125603#3"/>
    <trip id="31" depart="31.00" from="143910601#3" to="469129696#3"/>
    <trip id="32" depart="32.00" from="596803755#1" to="595139581#4"/>
    <trip id="33" depart="33.00" from="-595139581#4" to="-172242508#2"/>
    <trip id="34" depart="34.00" from="-600376223#3" to="-600376223#0"/>
    <trip id="35" depart="35.00" from="-595139581#4" to="653567184#14"/>
    <trip id="36" depart="36.00" from="600376223#0" to="-600376223#2"/>
    <trip id="37" depart="37.00" from="469125592#1" to="-846270090#0"/>
    <trip id="38" depart="38.00" from="600376223#6" to="143910601#1"/>
    <trip id="39" depart="39.00" from="-595139581#4" to="-596803754#2"/>
    <trip id="40" depart="40.00" from="143910601#4" to="-600376223#0"/>
    <trip id="41" depart="41.00" from="172242508#1" to="653567184#1"/>
    <trip id="42" depart="42.00" from="-653567184#6" to="-595139581#1"/>
    <trip id="43" depart="43.00" from="886504719#1" to="143910601#3"/>
    <trip id="44" depart="44.00" from="-469125603#1" to="-172242508#8"/>
    <trip id="45" depart="45.00" from="-469125605" to="469125603#0"/>
    <trip id="46" depart="46.00" from="482877875#1" to="1307028824#1"/>
    <trip id="47" depart="47.00" from="-469114688#1" to="-653567184#6"/>
    <trip id="48" depart="48.00" from="886504719#1" to="143910601#5"/>
    <trip id="49" depart="49.00" from="670686696#0" to="600376223#1"/>
</routes>
