<?xml version="1.0" encoding="UTF-8"?>

<!-- generated on 2026-06-10 16:26:04.677079 by randomTrips.py UNKNOWN
<configuration>
    <net-file value="real.net.xml"/>
    <route-file value="real.rou.xml"/>
    <length value="True"/>
    <end value="100.0"/>
</configuration>
-->

<!-- generated on 2026-06-10 16:26:04 by Eclipse SUMO duarouter Version 1.18.0
<configuration xmlns:xsi="http://www.w3.org/2001/XMLSchema-instance" xsi:noNamespaceSchemaLocation="http://sumo.dlr.de/xsd/duarouterConfiguration.xsd">

    <input>
        <net-file value="real.net.xml"/>
        <route-files value="trips.trips.xml"/>
    </input>

    <output>
        <output-file value="real.rou.xml"/>
        <alternatives-output value="NUL"/>
    </output>

    <time>
        <begin value="0"/>
        <end value="100.0"/>
    </time>

    <report>
        <no-warnings value="true"/>
        <ignore-errors value="true"/>
        <no-step-log value="true"/>
    </report>

</configuration>
-->

<routes xmlns:xsi="http://www.w3.org/2001/XMLSchema-instance" xsi:noNamespaceSchemaLocation="http://sumo.dlr.de/xsd/routes_file.xsd">
    <vehicle id="0" depart="0.00">
        <route edges="469046214#4 -469046214#4 -226947225#6"/>
    </vehicle>
    <vehicle id="1" depart="1.00">
        <route edges="-476046335#7 -476046347 476046334#3 476046334#4 476046334#5 476046334#6 -226947225#2 -226947225#1 476046333#0 -476046352"/>
    </vehicle>
    <vehicle id="2" depart="2.00">
        <route edges="476046337 476046334#3 476046334#4 476046334#5 -476046351 476046333#2 476046333#3"/>
    </vehicle>
    <vehicle id="3" depart="3.00">
        <route edges="498247660#1 498247660#2 498247660#4 226947225#5 226947225#6 469046214#4 469046214#5 469046214#6 469046214#7 469046214#8 -469046214#8"/>
    </vehicle>
    <vehicle id="4" depart="4.00">
        <route edges="-476048205#2 -476048205#1 -476048205#0 -469046214#8 -469046214#7 -469046214#6 -469046214#5 -469046214#4 -469046214#3 -469046214#2 -469046214#1 -468671417#4 -468671417#2 -468671417#1 -468671417#0"/>
    </vehicle>
    <vehicle id="5" depart="5.00">
        <route edges="-469046214#8 469046214#8 469046214#10"/>
    </vehicle>
    <vehicle id="6" depart="6.00">
        <route edges="-468671417#4 468671417#4 469046214#1 469046214#2 469046214#3 -226947225#6 -226947225#5 -226947225#3 -476046334#6 -476046334#5 -476046334#4 -476046341"/>
    </vehicle>
    <vehicle id="7" depart="7.00">
        <route edges="469046214#8 469046214#10"/>
    </vehicle>
    <vehicle id="8" depart="8.00">
        <route edges="-469046214#8 469046214#8 469046214#10"/>
    </vehicle>
    <vehicle id="9" depart="9.00">
        <route edges="476046358 476046335#5 -720714983 -476046353 -469046214#8 -469046214#7 -469046214#6 -469046214#5 -469046214#4 -226947225#6 -226947225#5 -226947225#3 -226947225#2 -226947225#1 -226947225#0"/>
    </vehicle>
    <vehicle id="10" depart="10.00">
        <route edges="476046358 -476046335#4 -476046335#3 -476046354#1 -476046354#0 476046334#5 476046334#6"/>
    </vehicle>
    <vehicle id="11" depart="11.00">
        <route edges="-476048200#0 469046214#3 469046214#4 469046214#5 469046214#6 469046214#7 469046214#8 476046353 -476046336#1 -476046336#0"/>
    </vehicle>
    <vehicle id="12" depart="12.00">
        <route edges="498247667#0 498247661#1 -498247661#1"/>
    </vehicle>
    <vehicle id="13" depart="13.00">
        <route edges="-469046214#10 -469046214#8 -469046214#7 -469046214#6 -469046214#5 -469046214#4 -226947225#6 -226947225#5 -226947225#3 -476046334#6 -476046351 -476046333#1"/>
    </vehicle>
    <vehicle id="14" depart="14.00">
        <route edges="476048202#2 -476048205#0 469046214#10"/>
    </vehicle>
    <vehicle id="15" depart="15.00">
        <route edges="476046358 476046335#5 -720714983 -476046353 -469046214#8 -469046214#7 -469046214#6 476046339"/>
    </vehicle>
    <vehicle id="16" depart="16.00">
        <route edges="-720714990 720714990"/>
    </vehicle>
    <vehicle id="17" depart="17.00">
        <route edges="-476048202#1 -476048206#0 469046214#5 469046214#6 469046214#7 469046214#8 469046214#10"/>
    </vehicle>
    <vehicle id="18" depart="18.00">
        <route edges="476048202#0 -476048206#0 469046214#5 469046214#6 469046214#7 469046214#8 469046214#10"/>
    </vehicle>
    <vehicle id="19" depart="19.00">
        <route edges="476048204#1 -476048201#1 -476048201#0 469046214#8 469046214#10"/>
    </vehicle>
    <vehicle id="20" depart="20.00">
        <route edges="476046335#2 -476046354#1 -476046354#0 476046334#5 476046334#6 226947225#3 226947225#5 226947225#6 -469046214#3 -469046214#2 -469046214#1 -468671417#4 -468671417#2"/>
    </vehicle>
    <vehicle id="21" depart="21.00">
        <route edges="-476046333#1 -476046333#0 226947225#1 226947225#2 226947225#3 226947225#5 226947225#6 469046214#4 476048206#0 476048206#1 -476048204#0"/>
    </vehicle>
    <vehicle id="22" depart="22.00">
        <route edges="-469046214#10 -469046214#8 -469046214#7 476046335#0 -476046355#1 476046356 -476046356 -476046355#0"/>
    </vehicle>
    <vehicle id="23" depart="23.00">
        <route edges="-469046214#10 476048205#0 -476048202#2"/>
    </vehicle>
    <vehicle id="24" depart="24.00">
        <route edges="469046214#3 -469046214#3 -469046214#2 -469046214#1 -468671417#4 -468671417#2 -468671417#1 -498247661#4 -498247661#3 -498247661#2 -498247665"/>
    </vehicle>
    <vehicle id="25" depart="25.00">
        <route edges="-476048202#0 -476048200#0 469046214#3 -226947225#6 -226947225#5 -226947225#3 -476046334#6 -476046334#5 -476046334#4 -476046334#3 -476046346"/>
    </vehicle>
    <vehicle id="26" depart="26.00">
        <route edges="-476046335#2 -476046335#0 -469046214#6 -469046214#5 -469046214#4 -469046214#3 -469046214#2 -469046214#1 -468671417#4 -498247666#4 -498247666#3 -498247666#2 498247665"/>
    </vehicle>
    <vehicle id="27" depart="27.00">
        <route edges="469046214#8 469046214#10"/>
    </vehicle>
    <vehicle id="28" depart="28.00">
        <route edges="-469046214#10 -469046214#8 -469046214#7 -469046214#6 476046339"/>
    </vehicle>
    <vehicle id="29" depart="29.00">
        <route edges="-469046214#10 -469046214#8 -469046214#7 -469046214#6 -469046214#5 -469046214#4 -469046214#3 -469046214#2 -469046214#1 -468671417#4 -498247666#4 -498247666#3 -498247666#2"/>
    </vehicle>
    <vehicle id="30" depart="30.00">
        <route edges="720714990 498247666#3 498247666#4 468671417#4 469046214#1 469046214#2"/>
    </vehicle>
    <vehicle id="31" depart="31.00">
        <route edges="-720714992 498247661#2 498247661#3 498247661#4 468671417#1 468671417#2 468671417#4 469046214#1 469046214#2 469046214#3 -226947225#6 -226947225#5 -226947225#3 -476046334#6 -476046334#5 -476046334#4 -476046334#3 476046334#3"/>
    </vehicle>
    <vehicle id="32" depart="32.00">
        <route edges="476048202#2 -476048205#0 -469046214#8 -469046214#7 -469046214#6 -469046214#5 -469046214#4 -469046214#3 476048200#0"/>
    </vehicle>
    <vehicle id="33" depart="33.00">
        <route edges="-476046333#1 -476046333#0 226947225#1 226947225#2 226947225#3 226947225#5 226947225#6 -469046214#3 -469046214#2 -469046214#1 -468671417#4 -468671417#2 -468671417#1 -468671417#0"/>
    </vehicle>
    <vehicle id="34" depart="34.00">
        <route edges="-476046355#1 476046355#1 -476046335#0 -469046214#6 -469046214#5 476048206#0 -476048202#0"/>
    </vehicle>
    <vehicle id="35" depart="35.00">
        <route edges="-469046214#5 -469046214#4 -469046214#3 -469046214#2 -469046214#1 -468671417#4 -498247666#4 498247666#4"/>
    </vehicle>
    <vehicle id="36" depart="36.00">
        <route edges="498247656 -498247657#1"/>
    </vehicle>
    <vehicle id="37" depart="37.00">
        <route edges="476046333#1 476046351 476046334#6 226947225#3 226947225#5 226947225#6 -469046214#3 -469046214#2 -469046214#1 -468671417#4 -498247666#4 -498247666#3 -498247666#2 -498247666#1 -498247667#1"/>
    </vehicle>
    <vehicle id="38" depart="38.00">
        <route edges="498247662 498247661#4 468671417#1"/>
    </vehicle>
    <vehicle id="39" depart="39.00">
        <route edges="-476046335#2 476046335#2 476046335#3 476046335#4 -476046358"/>
    </vehicle>
    <vehicle id="40" depart="40.00">
        <route edges="-720714992 498247661#2 498247661#3 498247661#4 468671417#1 468671417#2 468671417#4 469046214#1 469046214#2 469046214#3 469046214#4 469046214#5 469046214#6 469046214#7 476048201#0 476048201#1 -476048201#1"/>
    </vehicle>
    <vehicle id="41" depart="41.00">
        <route edges="226947225#2 226947225#3 226947225#5 226947225#6 -469046214#3 -469046214#2 -469046214#1 -468671417#4 498247657#0 498247658"/>
    </vehicle>
    <vehicle id="42" depart="42.00">
        <route edges="-476048202#3 -476048205#0 -469046214#8 -469046214#7 -469046214#6 -469046214#5 -469046214#4 -226947225#6 -226947225#5 -226947225#3 -226947225#2 -226947225#1 476046333#0 -476046352"/>
    </vehicle>
    <vehicle id="43" depart="43.00">
        <route edges="720714990 498247666#3 498247666#4 468671417#4 469046214#1 469046214#2 469046214#3 469046214#4 469046214#5 469046214#6 469046214#7 469046214#8 469046214#10"/>
    </vehicle>
    <vehicle id="44" depart="44.00">
        <route edges="-469046214#10 -469046214#8 -469046214#7 -469046214#6 -469046214#5 -469046214#4 -469046214#3 -469046214#2 -469046214#1 -468671417#4 -468671417#2"/>
    </vehicle>
    <vehicle id="45" depart="45.00">
        <route edges="-469046214#10 469046214#10"/>
    </vehicle>
    <vehicle id="46" depart="46.00">
        <route edges="476046353 -476046353 -469046214#8 -469046214#7 -469046214#6 -469046214#5 -469046214#4 -226947225#6 -226947225#5 -498247660#4 -720714987"/>
    </vehicle>
    <vehicle id="47" depart="47.00">
        <route edges="-469046214#10 -469046214#8 -469046214#7 -469046214#6 -469046214#5 -469046214#4 -469046214#3 -469046214#2 -469046214#1 -468671417#4 -498247666#4"/>
    </vehicle>
    <vehicle id="48" depart="48.00">
        <route edges="720714990 498247666#3 498247666#4 468671417#4 469046214#1 469046214#2 469046214#3 469046214#4 469046214#5 469046214#6 469046214#7 469046214#8 469046214#10"/>
    </vehicle>
    <vehicle id="49" depart="49.00">
        <route edges="720714983 -720714983 -476046353 476048205#0 476048205#1 476048205#2"/>
    </vehicle>
    <vehicle id="50" depart="50.00">
        <route edges="-226947225#5 226947225#5 226947225#6 469046214#4 469046214#5 469046214#6 469046214#7 469046214#8 476046353 476046336#2 476046336#3 476046336#4"/>
    </vehicle>
    <vehicle id="51" depart="51.00">
        <route edges="476046334#3 476046334#4 476046334#5 476046334#6 226947225#3 226947225#5 226947225#6 469046214#4 469046214#5 469046214#6 469046214#7 469046214#8 469046214#10"/>
    </vehicle>
    <vehicle id="52" depart="52.00">
        <route edges="-476046335#2 -476046335#0 -469046214#6 -469046214#5 -469046214#4 -469046214#3 -469046214#2 469046214#2"/>
    </vehicle>
    <vehicle id="53" depart="53.00">
        <route edges="-469046214#10 -469046214#8 -469046214#7 -469046214#6 -469046214#5 -469046214#4 -469046214#3 -469046214#2 -469046214#1 -468671417#4 -498247666#4 -498247666#3 -720714990"/>
    </vehicle>
    <vehicle id="54" depart="54.00">
        <route edges="-498247657#0 -468671417#2 -468671417#1 -498247661#4 -498247661#3 -498247661#2 -498247661#1 498247667#1"/>
    </vehicle>
    <vehicle id="55" depart="55.00">
        <route edges="498247656 498247657#2 498247657#3 226947225#6 469046214#4 476048206#0 -476048202#0"/>
    </vehicle>
    <vehicle id="56" depart="56.00">
        <route edges="-498247665 498247666#2 498247666#3 498247666#4 468671417#4 469046214#1 469046214#2 469046214#3 -226947225#6 -226947225#5 -226947225#3 -476046334#6 -476046334#5 -476046334#4 -476046334#3 -476046337"/>
    </vehicle>
    <vehicle id="57" depart="57.00">
        <route edges="498247662 498247661#4 468671417#1 468671417#2 468671417#4 469046214#1 469046214#2 469046214#3 469046214#4 476048206#0"/>
    </vehicle>
    <vehicle id="58" depart="58.00">
        <route edges="-476046352 476046333#3 226947225#2 226947225#3 226947225#5 226947225#6 -469046214#3 -469046214#2 469046214#2"/>
    </vehicle>
    <vehicle id="59" depart="59.00">
        <route edges="468671417#1 468671417#2 468671417#4 469046214#1 469046214#2 469046214#3 469046214#4 469046214#5 469046214#6 469046214#7 469046214#8 476046353 -476046336#1 -476046336#0"/>
    </vehicle>
    <vehicle id="60" depart="60.00">
        <route edges="476046341 476046334#4 476046334#5 476046334#6 226947225#3 226947225#5 226947225#6 469046214#4 469046214#5 469046214#6 469046214#7 469046214#8 469046214#10"/>
    </vehicle>
    <vehicle id="61" depart="61.00">
        <route edges="476046347 -476046335#6 -720714983 -476046353 469046214#10"/>
    </vehicle>
    <vehicle id="62" depart="62.00">
        <route edges="-226947225#1 226947225#1 226947225#2 226947225#3 226947225#5 226947225#6 -469046214#3 -469046214#2 -498247658"/>
    </vehicle>
    <vehicle id="63" depart="63.00">
        <route edges="-468671417#1 468671417#1 468671417#2 -498247666#4 -498247666#3 -498247666#2 498247665"/>
    </vehicle>
    <vehicle id="64" depart="64.00">
        <route edges="498247657#1 498247657#2 498247657#3 226947225#6 469046214#4 469046214#5 469046214#6 469046214#7 469046214#8 476048205#0 476048202#3"/>
    </vehicle>
    <vehicle id="65" depart="65.00">
        <route edges="-476046353 -469046214#8 -469046214#7 -469046214#6 -469046214#5 -469046214#4 -469046214#3 -469046214#2 -469046214#1 -469046214#0"/>
    </vehicle>
    <vehicle id="66" depart="66.00">
        <route edges="498247657#0 -498247657#0 -468671417#2 -468671417#1 -498247661#4 -498247661#3 -498247661#2 -498247661#1 498247667#1"/>
    </vehicle>
    <vehicle id="67" depart="67.00">
        <route edges="-469046214#10 469046214#10"/>
    </vehicle>
    <vehicle id="68" depart="68.00">
        <route edges="-469046214#10 476046353 476046336#2 476046358"/>
    </vehicle>
    <vehicle id="69" depart="69.00">
        <route edges="476046341 476046334#4 476046334#5 476046334#6 -476046334#6"/>
    </vehicle>
    <vehicle id="70" depart="70.00">
        <route edges="-498247661#2 498247661#2 498247661#3 498247661#4 468671417#1 468671417#2 468671417#4 469046214#1 469046214#2 469046214#3 469046214#4 469046214#5 469046214#6 469046214#7 469046214#8 469046214#10"/>
    </vehicle>
    <vehicle id="71" depart="71.00">
        <route edges="-476046335#2 -476046335#0 -469046214#6 -469046214#5 476048206#0 476048206#1"/>
    </vehicle>
    <vehicle id="72" depart="72.00">
        <route edges="-476048205#2 -476048205#1 -476048205#0 476046353 720714983 476046335#6 -476046347 -476046346"/>
    </vehicle>
    <vehicle id="73" depart="73.00">
        <route edges="-720714990 498247661#3 498247661#4 468671417#1 468671417#2 468671417#4 469046214#1 469046214#2 469046214#3 469046214#4 469046214#5 476046339"/>
    </vehicle>
    <vehicle id="74" depart="74.00">
        <route edges="-469046214#2 469046214#2 469046214#3 -226947225#6 -498247657#3 -498247657#2 -498247656"/>
    </vehicle>
    <vehicle id="75" depart="75.00">
        <route edges="720714990 498247666#3 498247666#4 468671417#4 469046214#1 469046214#2 469046214#3 469046214#4 469046214#5 469046214#6 469046214#7"/>
    </vehicle>
    <vehicle id="76" depart="76.00">
        <route edges="-476048209 -476048205#1 -476048205#0 469046214#10"/>
    </vehicle>
    <vehicle id="77" depart="77.00">
        <route edges="-469046214#10 476046353 -476046353"/>
    </vehicle>
    <vehicle id="78" depart="78.00">
        <route edges="-476046360 476046359#1 -476046335#6 -720714983 -476046353 469046214#10"/>
    </vehicle>
    <vehicle id="79" depart="79.00">
        <route edges="-476046333#1 -476046352"/>
    </vehicle>
    <vehicle id="80" depart="80.00">
        <route edges="-469046214#10 469046214#10"/>
    </vehicle>
    <vehicle id="81" depart="81.00">
        <route edges="-476046333#1 -476046333#0 226947225#1 226947225#2 226947225#3 226947225#5 226947225#6 -469046214#3 -469046214#2 -469046214#1 -468671417#4 -468671417#2 498247660#0 498247660#1"/>
    </vehicle>
    <vehicle id="82" depart="82.00">
        <route edges="476048204#1 -476048201#1 -476048201#0 -469046214#7 -469046214#6 -469046214#5 -469046214#4 -469046214#3 -469046214#2"/>
    </vehicle>
    <vehicle id="83" depart="83.00">
        <route edges="-476046333#2 -476046333#1 476046333#1"/>
    </vehicle>
    <vehicle id="84" depart="84.00">
        <route edges="-469046214#7 -469046214#6 -469046214#5 -469046214#4 -226947225#6 -226947225#5 -226947225#3 -476046334#6"/>
    </vehicle>
    <vehicle id="85" depart="85.00">
        <route edges="498247665 498247661#2 498247661#3 498247661#4 468671417#1 468671417#2 468671417#4 469046214#1 469046214#2 469046214#3 469046214#4 469046214#5 469046214#6 469046214#7 469046214#8 469046214#10"/>
    </vehicle>
    <vehicle id="86" depart="86.00">
        <route edges="-498247660#4 498247660#4 226947225#5 226947225#6 -469046214#3 476048200#0 476048200#1 476048200#2"/>
    </vehicle>
    <vehicle id="87" depart="87.00">
        <route edges="476046358 -476046335#4 -476046335#3 -476046354#1 -476046354#0 -476046334#4 -476046341"/>
    </vehicle>
    <vehicle id="88" depart="88.00">
        <route edges="-469046214#10 -469046214#8 -469046214#7 -469046214#6 -469046214#5 -469046214#4 -469046214#3 -469046214#2 -469046214#1 -468671417#4 -498247666#4 -498247666#3 -720714990"/>
    </vehicle>
    <vehicle id="89" depart="89.00">
        <route edges="-476048205#2 -476048205#1 -476048205#0 469046214#10"/>
    </vehicle>
    <vehicle id="90" depart="90.00">
        <route edges="476046337 476046334#3 476046334#4 476046334#5 -476046351 476046333#2"/>
    </vehicle>
    <vehicle id="91" depart="91.00">
        <route edges="720714987 498247660#4 -226947225#3 -476046334#6 -476046351 -476046333#1"/>
    </vehicle>
    <vehicle id="92" depart="92.00">
        <route edges="-476048204#0 -476048200#1 -476048200#0 -469046214#2 -469046214#1 -468671417#4 -468671417#2 -468671417#1 -498247661#4 -498247661#3"/>
    </vehicle>
    <vehicle id="93" depart="93.00">
        <route edges="476048204#1 -476048201#1 -476048201#0 469046214#8 476046353 720714983 476046335#6 -476046359#1 -476046359#0"/>
    </vehicle>
    <vehicle id="94" depart="94.00">
        <route edges="-469046214#10 -469046214#8 -469046214#7 -469046214#6 -469046214#5 -469046214#4 -226947225#6 -226947225#5 226947225#5"/>
    </vehicle>
    <vehicle id="95" depart="95.00">
        <route edges="-476048205#2 -476048205#1 -476048202#2"/>
    </vehicle>
    <vehicle id="96" depart="96.00">
        <route edges="-476046334#3 476046334#3 476046334#4 476046334#5 476046334#6 226947225#3 226947225#5 226947225#6 -469046214#3 -469046214#2 -469046214#1 -468671417#4 -498247666#4 498247662"/>
    </vehicle>
    <vehicle id="97" depart="97.00">
        <route edges="-476048209 476048205#2"/>
    </vehicle>
    <vehicle id="98" depart="98.00">
        <route edges="-720714991 498247661#4 468671417#1 468671417#2 468671417#4 -468671417#4"/>
    </vehicle>
    <vehicle id="99" depart="99.00">
        <route edges="720714990 498247666#3 498247666#4 468671417#4 469046214#1 469046214#2 469046214#3 469046214#4 469046214#5 469046214#6 469046214#7 469046214#8 476048205#0 476048202#3"/>
    </vehicle>
</routes>
