<?xml version="1.0" encoding="UTF-8"?>
<configuration xmlns:xsi="http://www.w3.org/2001/XMLSchema-instance" xsi:noNamespaceSchemaLocation="http://sumo.dlr.de/xsd/sumoConfiguration.xsd">

    <input>
        <net-file value="real.net.xml"/>
        <route-files value="real.rou.xml"/>
    </input>
    
    <output>
        <fcd-output value="real_trace.xml"/>
    </output>

    <time>
        <begin value="0"/>
        <end value="100"/>
    </time>

</configuration>