<?xml version="1.0" encoding="UTF-8"?>

<!-- generated on 2026-06-10 16:25:57 by Eclipse SUMO netconvert Version 1.18.0
<configuration xmlns:xsi="http://www.w3.org/2001/XMLSchema-instance" xsi:noNamespaceSchemaLocation="http://sumo.dlr.de/xsd/netconvertConfiguration.xsd">

    <input>
        <osm-files value="map.osm"/>
    </input>

    <output>
        <output-file value="real.net.xml"/>
    </output>

    <projection>
        <proj.utm value="true"/>
    </projection>

    <processing>
        <geometry.remove value="true"/>
    </processing>

    <tls_building>
        <tls.guess-signals value="true"/>
    </tls_building>

    <junctions>
        <junctions.join value="true"/>
    </junctions>

</configuration>
-->

<net version="1.16" junctionCornerDetail="5" limitTurnSpeed="5.50" xmlns:xsi="http://www.w3.org/2001/XMLSchema-instance" xsi:noNamespaceSchemaLocation="http://sumo.dlr.de/xsd/net_file.xsd">

    <location netOffset="-454150.07,-3968036.41" convBoundary="0.00,0.00,2614.92,651.47" origBoundary="128.492191,35.855491,128.521145,35.861362" projParameter="+proj=utm +zone=52 +ellps=WGS84 +datum=WGS84 +units=m +no_defs"/>

    <type id="highway.living_street" priority="2" numLanes="1" speed="2.78" disallow="tram rail_urban rail rail_electric rail_fast ship" oneway="0"/>
    <type id="highway.residential" priority="3" numLanes="1" speed="13.89" disallow="tram rail_urban rail rail_electric rail_fast ship" oneway="0"/>
    <type id="highway.secondary" priority="11" numLanes="1" speed="27.78" disallow="tram rail_urban rail rail_electric rail_fast ship" oneway="0"/>
    <type id="highway.tertiary" priority="10" numLanes="1" speed="22.22" disallow="tram rail_urban rail rail_electric rail_fast ship" oneway="0"/>
    <type id="highway.unclassified" priority="4" numLanes="1" speed="13.89" disallow="tram rail_urban rail rail_electric rail_fast ship" oneway="0"/>

    <edge id=":2356857413_0" function="internal">
        <lane id=":2356857413_0_0" index="0" disallow="tram rail_urban rail rail_electric rail_fast ship" speed="3.65" length="4.67" shape="174.95,82.66 175.71,81.43 176.50,81.01 177.31,81.39 178.15,82.56"/>
    </edge>
    <edge id=":2356857525_0" function="internal">
        <lane id=":2356857525_0_0" index="0" disallow="tram rail_urban rail rail_electric rail_fast ship" speed="3.65" length="4.67" shape="309.37,6.31 310.14,5.09 310.93,4.67 311.74,5.05 312.57,6.23"/>
    </edge>
    <edge id=":366669829_0" function="internal">
        <lane id=":366669829_0_0" index="0" disallow="tram rail_urban rail rail_electric rail_fast ship" speed="3.65" length="4.67" shape="2614.87,358.32 2616.10,359.08 2616.52,359.87 2616.14,360.68 2614.96,361.51"/>
    </edge>
    <edge id=":369918512_0" function="internal">
        <lane id=":369918512_0_0" index="0" disallow="tram rail_urban rail rail_electric rail_fast ship" speed="3.65" length="4.67" shape="695.81,211.21 697.01,212.01 697.40,212.82 697.00,213.61 695.79,214.41"/>
    </edge>
    <edge id=":414665746_0" function="internal">
        <lane id=":414665746_0_0" index="0" disallow="tram rail_urban rail rail_electric rail_fast ship" speed="3.65" length="4.67" shape="4.00,434.52 2.78,433.75 2.36,432.96 2.74,432.15 3.92,431.32"/>
    </edge>
    <edge id=":436855200_0" function="internal">
        <lane id=":436855200_0_0" index="0" disallow="tram rail_urban rail rail_electric rail_fast ship" speed="27.78" length="14.46" shape="343.77,425.36 329.31,425.84"/>
    </edge>
    <edge id=":436855200_1" function="internal">
        <lane id=":436855200_1_0" index="0" disallow="tram rail_urban rail rail_electric rail_fast ship" speed="7.98" length="4.13" shape="343.77,425.36 339.88,424.96 339.69,424.86"/>
    </edge>
    <edge id=":436855200_2" function="internal">
        <lane id=":436855200_2_0" index="0" disallow="tram rail_urban rail rail_electric rail_fast ship" speed="3.65" length="1.44" shape="343.77,425.36 342.54,424.61"/>
    </edge>
    <edge id=":436855200_9" function="internal">
        <lane id=":436855200_9_0" index="0" disallow="tram rail_urban rail rail_electric rail_fast ship" speed="7.98" length="10.11" shape="339.69,424.86 337.07,423.41 335.33,420.71 334.67,416.86"/>
    </edge>
    <edge id=":436855200_10" function="internal">
        <lane id=":436855200_10_0" index="0" disallow="tram rail_urban rail rail_electric rail_fast ship" speed="3.65" length="3.23" shape="342.54,424.61 342.11,423.83 342.47,423.01 343.64,422.16"/>
    </edge>
    <edge id=":436855200_3" function="internal">
        <lane id=":436855200_3_0" index="0" disallow="tram rail_urban rail rail_electric rail_fast ship" speed="6.48" length="9.03" shape="337.87,416.77 338.29,419.21 339.39,420.93 341.18,421.91 343.64,422.16"/>
    </edge>
    <edge id=":436855200_4" function="internal">
        <lane id=":436855200_4_0" index="0" disallow="tram rail_urban rail rail_electric rail_fast ship" speed="8.00" length="14.22" shape="337.87,416.77 337.43,420.65 335.85,423.46 333.15,425.18 329.31,425.84"/>
    </edge>
    <edge id=":436855200_5" function="internal">
        <lane id=":436855200_5_0" index="0" disallow="tram rail_urban rail rail_electric rail_fast ship" speed="3.65" length="4.67" shape="337.87,416.77 337.10,417.99 336.31,418.42 335.50,418.04 334.67,416.86"/>
    </edge>
    <edge id=":436855200_6" function="internal">
        <lane id=":436855200_6_0" index="0" disallow="tram rail_urban rail rail_electric rail_fast ship" speed="6.51" length="9.05" shape="329.23,422.64 331.67,422.22 333.39,421.12 334.39,419.34 334.67,416.86"/>
    </edge>
    <edge id=":436855200_7" function="internal">
        <lane id=":436855200_7_0" index="0" disallow="tram rail_urban rail rail_electric rail_fast ship" speed="27.78" length="14.42" shape="329.23,422.64 343.64,422.16"/>
    </edge>
    <edge id=":436855200_8" function="internal">
        <lane id=":436855200_8_0" index="0" disallow="tram rail_urban rail rail_electric rail_fast ship" speed="3.65" length="1.44" shape="329.23,422.64 330.45,423.41"/>
    </edge>
    <edge id=":436855200_11" function="internal">
        <lane id=":436855200_11_0" index="0" disallow="tram rail_urban rail rail_electric rail_fast ship" speed="3.65" length="3.23" shape="330.45,423.41 330.87,424.20 330.49,425.01 329.31,425.84"/>
    </edge>
    <edge id=":4631593768_0" function="internal">
        <lane id=":4631593768_0_0" index="0" disallow="tram rail_urban rail rail_electric rail_fast ship" speed="27.78" length="14.43" shape="193.61,429.80 179.18,430.21"/>
    </edge>
    <edge id=":4631593768_1" function="internal">
        <lane id=":4631593768_1_0" index="0" disallow="tram rail_urban rail rail_electric rail_fast ship" speed="8.00" length="4.09" shape="193.61,429.80 189.74,429.37 189.57,429.28"/>
    </edge>
    <edge id=":4631593768_2" function="internal">
        <lane id=":4631593768_2_0" index="0" disallow="tram rail_urban rail rail_electric rail_fast ship" speed="3.65" length="1.44" shape="193.61,429.80 192.38,429.04"/>
    </edge>
    <edge id=":4631593768_9" function="internal">
        <lane id=":4631593768_9_0" index="0" disallow="tram rail_urban rail rail_electric rail_fast ship" speed="8.00" length="10.11" shape="189.57,429.28 186.94,427.81 185.21,425.10 184.55,421.27"/>
    </edge>
    <edge id=":4631593768_10" function="internal">
        <lane id=":4631593768_10_0" index="0" disallow="tram rail_urban rail rail_electric rail_fast ship" speed="3.65" length="3.23" shape="192.38,429.04 191.96,428.26 192.33,427.44 193.51,426.61"/>
    </edge>
    <edge id=":4631593768_3" function="internal">
        <lane id=":4631593768_3_0" index="0" disallow="tram rail_urban rail rail_electric rail_fast ship" speed="6.50" length="9.03" shape="187.75,421.18 188.17,423.62 189.27,425.34 191.05,426.33 193.51,426.61"/>
    </edge>
    <edge id=":4631593768_4" function="internal">
        <lane id=":4631593768_4_0" index="0" disallow="tram rail_urban rail rail_electric rail_fast ship" speed="8.00" length="14.21" shape="187.75,421.18 187.31,425.05 185.73,427.84 183.02,429.56 179.18,430.21"/>
    </edge>
    <edge id=":4631593768_5" function="internal">
        <lane id=":4631593768_5_0" index="0" disallow="tram rail_urban rail rail_electric rail_fast ship" speed="3.65" length="4.67" shape="187.75,421.18 186.98,422.40 186.19,422.82 185.38,422.44 184.55,421.27"/>
    </edge>
    <edge id=":4631593768_6" function="internal">
        <lane id=":4631593768_6_0" index="0" disallow="tram rail_urban rail rail_electric rail_fast ship" speed="6.50" length="9.03" shape="179.10,427.01 181.55,426.60 183.27,425.50 184.27,423.73 184.55,421.27"/>
    </edge>
    <edge id=":4631593768_7" function="internal">
        <lane id=":4631593768_7_0" index="0" disallow="tram rail_urban rail rail_electric rail_fast ship" speed="27.78" length="14.41" shape="179.10,427.01 193.51,426.61"/>
    </edge>
    <edge id=":4631593768_8" function="internal">
        <lane id=":4631593768_8_0" index="0" disallow="tram rail_urban rail rail_electric rail_fast ship" speed="3.65" length="1.44" shape="179.10,427.01 180.32,427.78"/>
    </edge>
    <edge id=":4631593768_11" function="internal">
        <lane id=":4631593768_11_0" index="0" disallow="tram rail_urban rail rail_electric rail_fast ship" speed="3.65" length="3.23" shape="180.32,427.78 180.74,428.57 180.36,429.38 179.18,430.21"/>
    </edge>
    <edge id=":4673887512_0" function="internal">
        <lane id=":4673887512_0_0" index="0" disallow="tram rail_urban rail rail_electric rail_fast ship" speed="6.47" length="9.03" shape="461.32,424.64 460.94,422.19 459.87,420.46 458.10,419.45 455.63,419.17"/>
    </edge>
    <edge id=":4673887512_1" function="internal">
        <lane id=":4673887512_1_0" index="0" disallow="tram rail_urban rail rail_electric rail_fast ship" speed="8.05" length="14.21" shape="461.32,424.64 461.82,420.77 463.43,417.97 466.14,416.24 469.95,415.59"/>
    </edge>
    <edge id=":4673887512_2" function="internal">
        <lane id=":4673887512_2_0" index="0" disallow="tram rail_urban rail rail_electric rail_fast ship" speed="3.65" length="4.67" shape="461.32,424.64 462.11,423.43 462.90,423.03 463.71,423.42 464.52,424.61"/>
    </edge>
    <edge id=":4673887512_3" function="internal">
        <lane id=":4673887512_3_0" index="0" disallow="tram rail_urban rail rail_electric rail_fast ship" speed="6.57" length="9.11" shape="470.03,418.79 467.60,419.21 465.87,420.32 464.84,422.12 464.52,424.61"/>
    </edge>
    <edge id=":4673887512_4" function="internal">
        <lane id=":4673887512_4_0" index="0" disallow="tram rail_urban rail rail_electric rail_fast ship" speed="27.78" length="14.40" shape="470.03,418.79 455.63,419.17"/>
    </edge>
    <edge id=":4673887512_5" function="internal">
        <lane id=":4673887512_5_0" index="0" disallow="tram rail_urban rail rail_electric rail_fast ship" speed="3.65" length="1.44" shape="470.03,418.79 468.81,418.02"/>
    </edge>
    <edge id=":4673887512_9" function="internal">
        <lane id=":4673887512_9_0" index="0" disallow="tram rail_urban rail rail_electric rail_fast ship" speed="3.65" length="3.23" shape="468.81,418.02 468.39,417.23 468.77,416.42 469.95,415.59"/>
    </edge>
    <edge id=":4673887512_6" function="internal">
        <lane id=":4673887512_6_0" index="0" disallow="tram rail_urban rail rail_electric rail_fast ship" speed="27.78" length="14.40" shape="455.55,415.97 469.95,415.59"/>
    </edge>
    <edge id=":4673887512_7" function="internal">
        <lane id=":4673887512_7_0" index="0" disallow="tram rail_urban rail rail_electric rail_fast ship" speed="7.97" length="4.08" shape="455.55,415.97 459.44,416.42 459.58,416.50"/>
    </edge>
    <edge id=":4673887512_8" function="internal">
        <lane id=":4673887512_8_0" index="0" disallow="tram rail_urban rail rail_electric rail_fast ship" speed="3.65" length="1.44" shape="455.55,415.97 456.77,416.74"/>
    </edge>
    <edge id=":4673887512_10" function="internal">
        <lane id=":4673887512_10_0" index="0" disallow="tram rail_urban rail rail_electric rail_fast ship" speed="7.97" length="10.17" shape="459.58,416.50 462.23,418.01 463.92,420.74 464.52,424.61"/>
    </edge>
    <edge id=":4673887512_11" function="internal">
        <lane id=":4673887512_11_0" index="0" disallow="tram rail_urban rail rail_electric rail_fast ship" speed="3.65" length="3.23" shape="456.77,416.74 457.19,417.52 456.81,418.33 455.63,419.17"/>
    </edge>
    <edge id=":4673887518_0" function="internal">
        <lane id=":4673887518_0_0" index="0" disallow="tram rail_urban rail rail_electric rail_fast ship" speed="6.53" length="9.07" shape="278.25,432.82 277.81,430.37 276.70,428.64 274.92,427.64 272.46,427.36"/>
    </edge>
    <edge id=":4673887518_1" function="internal">
        <lane id=":4673887518_1_0" index="0" disallow="tram rail_urban rail rail_electric rail_fast ship" speed="7.99" length="14.23" shape="278.25,432.82 278.66,428.94 280.22,426.14 282.93,424.41 286.78,423.75"/>
    </edge>
    <edge id=":4673887518_2" function="internal">
        <lane id=":4673887518_2_0" index="0" disallow="tram rail_urban rail rail_electric rail_fast ship" speed="3.65" length="4.67" shape="278.25,432.82 279.00,431.59 279.79,431.17 280.60,431.54 281.44,432.71"/>
    </edge>
    <edge id=":4673887518_3" function="internal">
        <lane id=":4673887518_3_0" index="0" disallow="tram rail_urban rail rail_electric rail_fast ship" speed="6.49" length="9.03" shape="286.86,426.95 284.42,427.37 282.70,428.46 281.71,430.25 281.44,432.71"/>
    </edge>
    <edge id=":4673887518_4" function="internal">
        <lane id=":4673887518_4_0" index="0" disallow="tram rail_urban rail rail_electric rail_fast ship" speed="27.78" length="14.41" shape="286.86,426.95 272.46,427.36"/>
    </edge>
    <edge id=":4673887518_5" function="internal">
        <lane id=":4673887518_5_0" index="0" disallow="tram rail_urban rail rail_electric rail_fast ship" speed="3.65" length="1.44" shape="286.86,426.95 285.64,426.18"/>
    </edge>
    <edge id=":4673887518_9" function="internal">
        <lane id=":4673887518_9_0" index="0" disallow="tram rail_urban rail rail_electric rail_fast ship" speed="3.65" length="3.23" shape="285.64,426.18 285.22,425.39 285.60,424.58 286.78,423.75"/>
    </edge>
    <edge id=":4673887518_6" function="internal">
        <lane id=":4673887518_6_0" index="0" disallow="tram rail_urban rail rail_electric rail_fast ship" speed="27.78" length="14.42" shape="272.36,424.16 286.78,423.75"/>
    </edge>
    <edge id=":4673887518_7" function="internal">
        <lane id=":4673887518_7_0" index="0" disallow="tram rail_urban rail rail_electric rail_fast ship" speed="8.02" length="4.07" shape="272.36,424.16 276.22,424.60 276.38,424.69"/>
    </edge>
    <edge id=":4673887518_8" function="internal">
        <lane id=":4673887518_8_0" index="0" disallow="tram rail_urban rail rail_electric rail_fast ship" speed="3.65" length="1.44" shape="272.36,424.16 273.58,424.93"/>
    </edge>
    <edge id=":4673887518_10" function="internal">
        <lane id=":4673887518_10_0" index="0" disallow="tram rail_urban rail rail_electric rail_fast ship" speed="8.02" length="10.14" shape="276.38,424.69 279.02,426.16 280.76,428.87 281.44,432.71"/>
    </edge>
    <edge id=":4673887518_11" function="internal">
        <lane id=":4673887518_11_0" index="0" disallow="tram rail_urban rail rail_electric rail_fast ship" speed="3.65" length="3.23" shape="273.58,424.93 274.01,425.71 273.63,426.53 272.46,427.36"/>
    </edge>
    <edge id=":4673887520_0" function="internal">
        <lane id=":4673887520_0_0" index="0" disallow="tram rail_urban rail rail_electric rail_fast ship" speed="6.45" length="9.03" shape="370.30,429.95 369.91,427.50 368.83,425.78 367.05,424.79 364.58,424.54"/>
    </edge>
    <edge id=":4673887520_1" function="internal">
        <lane id=":4673887520_1_0" index="0" disallow="tram rail_urban rail rail_electric rail_fast ship" speed="8.39" length="14.10" shape="370.30,429.95 370.75,426.08 372.24,423.14 374.75,421.14 378.29,420.07"/>
    </edge>
    <edge id=":4673887520_2" function="internal">
        <lane id=":4673887520_2_0" index="0" disallow="tram rail_urban rail rail_electric rail_fast ship" speed="3.65" length="4.67" shape="370.30,429.95 371.08,428.74 371.88,428.33 372.68,428.72 373.50,429.91"/>
    </edge>
    <edge id=":4673887520_3" function="internal">
        <lane id=":4673887520_3_0" index="0" disallow="tram rail_urban rail rail_electric rail_fast ship" speed="6.97" length="9.43" shape="378.76,423.23 376.43,423.95 374.77,425.30 373.80,427.29 373.50,429.91"/>
    </edge>
    <edge id=":4673887520_4" function="internal">
        <lane id=":4673887520_4_0" index="0" disallow="tram rail_urban rail rail_electric rail_fast ship" speed="27.78" length="14.24" shape="378.76,423.23 375.16,423.72 371.69,424.08 368.21,424.35 364.58,424.54"/>
    </edge>
    <edge id=":4673887520_5" function="internal">
        <lane id=":4673887520_5_0" index="0" disallow="tram rail_urban rail rail_electric rail_fast ship" speed="3.65" length="1.44" shape="378.76,423.23 377.45,422.62"/>
    </edge>
    <edge id=":4673887520_9" function="internal">
        <lane id=":4673887520_9_0" index="0" disallow="tram rail_urban rail rail_electric rail_fast ship" speed="3.65" length="3.23" shape="377.45,422.62 376.94,421.88 377.22,421.03 378.29,420.07"/>
    </edge>
    <edge id=":4673887520_6" function="internal">
        <lane id=":4673887520_6_0" index="0" disallow="tram rail_urban rail rail_electric rail_fast ship" speed="27.78" length="13.90" shape="364.46,421.34 368.03,421.16 371.39,420.90 374.74,420.55 378.29,420.07"/>
    </edge>
    <edge id=":4673887520_7" function="internal">
        <lane id=":4673887520_7_0" index="0" disallow="tram rail_urban rail rail_electric rail_fast ship" speed="7.95" length="3.93" shape="364.46,421.34 368.37,421.74"/>
    </edge>
    <edge id=":4673887520_8" function="internal">
        <lane id=":4673887520_8_0" index="0" disallow="tram rail_urban rail rail_electric rail_fast ship" speed="3.65" length="1.44" shape="364.46,421.34 365.69,422.09"/>
    </edge>
    <edge id=":4673887520_10" function="internal">
        <lane id=":4673887520_10_0" index="0" disallow="tram rail_urban rail rail_electric rail_fast ship" speed="7.95" length="10.36" shape="368.37,421.74 371.18,423.30 372.89,426.03 373.50,429.91"/>
    </edge>
    <edge id=":4673887520_11" function="internal">
        <lane id=":4673887520_11_0" index="0" disallow="tram rail_urban rail rail_electric rail_fast ship" speed="3.65" length="3.23" shape="365.69,422.09 366.12,422.87 365.75,423.69 364.58,424.54"/>
    </edge>
    <edge id=":4697030139_0" function="internal">
        <lane id=":4697030139_0_0" index="0" disallow="tram rail_urban rail rail_electric rail_fast ship" speed="22.22" length="14.78" shape="313.13,138.40 312.82,123.62"/>
    </edge>
    <edge id=":4697030139_1" function="internal">
        <lane id=":4697030139_1_0" index="0" disallow="tram rail_urban rail rail_electric rail_fast ship" speed="9.22" length="3.75" shape="313.13,138.40 313.60,134.90 313.70,134.71"/>
    </edge>
    <edge id=":4697030139_2" function="internal">
        <lane id=":4697030139_2_0" index="0" disallow="tram rail_urban rail rail_electric rail_fast ship" speed="3.65" length="1.44" shape="313.13,138.40 313.89,137.17"/>
    </edge>
    <edge id=":4697030139_9" function="internal">
        <lane id=":4697030139_9_0" index="0" disallow="tram rail_urban rail rail_electric rail_fast ship" speed="9.22" length="11.15" shape="313.70,134.71 315.23,131.97 318.02,129.60 321.97,127.80"/>
    </edge>
    <edge id=":4697030139_10" function="internal">
        <lane id=":4697030139_10_0" index="0" disallow="tram rail_urban rail rail_electric rail_fast ship" speed="3.65" length="3.23" shape="313.89,137.17 314.68,136.75 315.49,137.13 316.33,138.30"/>
    </edge>
    <edge id=":4697030139_3" function="internal">
        <lane id=":4697030139_3_0" index="0" disallow="tram rail_urban rail rail_electric rail_fast ship" speed="7.92" length="10.78" shape="322.99,130.83 320.02,132.16 317.92,133.84 316.69,135.89 316.33,138.30"/>
    </edge>
    <edge id=":4697030139_4" function="internal">
        <lane id=":4697030139_4_0" index="0" disallow="tram rail_urban rail rail_electric rail_fast ship" speed="7.56" length="15.53" shape="322.99,130.83 318.60,131.64 315.44,130.71 313.51,128.03 312.82,123.62"/>
    </edge>
    <edge id=":4697030139_5" function="internal">
        <lane id=":4697030139_5_0" index="0" disallow="tram rail_urban rail rail_electric rail_fast ship" speed="2.78" length="4.67" shape="322.99,130.83 321.60,130.45 320.97,129.82 321.09,128.94 321.97,127.80"/>
    </edge>
    <edge id=":4697030139_6" function="internal">
        <lane id=":4697030139_6_0" index="0" disallow="tram rail_urban rail rail_electric rail_fast ship" speed="5.94" length="9.09" shape="316.02,123.57 316.42,126.16 317.55,127.72 319.40,128.27 321.97,127.80"/>
    </edge>
    <edge id=":4697030139_7" function="internal">
        <lane id=":4697030139_7_0" index="0" disallow="tram rail_urban rail rail_electric rail_fast ship" speed="22.22" length="14.73" shape="316.02,123.57 316.33,138.30"/>
    </edge>
    <edge id=":4697030139_8" function="internal">
        <lane id=":4697030139_8_0" index="0" disallow="tram rail_urban rail rail_electric rail_fast ship" speed="3.65" length="1.44" shape="316.02,123.57 315.23,124.79"/>
    </edge>
    <edge id=":4697030139_11" function="internal">
        <lane id=":4697030139_11_0" index="0" disallow="tram rail_urban rail rail_electric rail_fast ship" speed="3.65" length="3.23" shape="315.23,124.79 314.44,125.20 313.63,124.81 312.82,123.62"/>
    </edge>
    <edge id=":4697030140_0" function="internal">
        <lane id=":4697030140_0_0" index="0" disallow="tram rail_urban rail rail_electric rail_fast ship" speed="2.78" length="11.27" shape="358.47,127.80 357.49,124.26 355.97,122.00 353.92,121.03 351.33,121.34"/>
    </edge>
    <edge id=":4697030140_1" function="internal">
        <lane id=":4697030140_1_0" index="0" disallow="tram rail_urban rail rail_electric rail_fast ship" speed="2.78" length="17.15" shape="358.47,127.80 358.25,122.55 359.75,119.43 362.96,118.43 367.90,119.56"/>
    </edge>
    <edge id=":4697030140_2" function="internal">
        <lane id=":4697030140_2_0" index="0" disallow="tram rail_urban rail rail_electric rail_fast ship" speed="2.78" length="4.69" shape="358.47,127.80 358.94,126.43 359.61,125.84 360.49,126.02 361.58,126.98"/>
    </edge>
    <edge id=":4697030140_3" function="internal">
        <lane id=":4697030140_3_0" index="0" disallow="tram rail_urban rail rail_electric rail_fast ship" speed="2.78" length="9.34" shape="366.76,122.55 364.06,121.93 362.29,122.46 361.46,124.14 361.58,126.98"/>
    </edge>
    <edge id=":4697030140_4" function="internal">
        <lane id=":4697030140_4_0" index="0" disallow="tram rail_urban rail rail_electric rail_fast ship" speed="2.78" length="15.74" shape="366.76,122.55 363.05,121.39 359.07,120.69 355.09,120.61 351.33,121.34"/>
    </edge>
    <edge id=":4697030140_5" function="internal">
        <lane id=":4697030140_5_0" index="0" disallow="tram rail_urban rail rail_electric rail_fast ship" speed="2.78" length="4.67" shape="366.76,122.55 365.93,121.38 365.83,120.49 366.49,119.88 367.90,119.56"/>
    </edge>
    <edge id=":4697030140_6" function="internal">
        <lane id=":4697030140_6_0" index="0" disallow="tram rail_urban rail rail_electric rail_fast ship" speed="2.78" length="17.86" shape="350.32,118.30 354.41,117.58 359.13,117.67 363.84,118.39 367.90,119.56"/>
    </edge>
    <edge id=":4697030140_7" function="internal">
        <lane id=":4697030140_7_0" index="0" disallow="tram rail_urban rail rail_electric rail_fast ship" speed="2.78" length="16.78" shape="350.32,118.30 354.49,117.69 357.76,118.93 360.12,122.02 361.58,126.98"/>
    </edge>
    <edge id=":4697030140_8" function="internal">
        <lane id=":4697030140_8_0" index="0" disallow="tram rail_urban rail rail_electric rail_fast ship" speed="2.78" length="4.67" shape="350.32,118.30 351.71,118.68 352.34,119.31 352.22,120.20 351.33,121.34"/>
    </edge>
    <edge id=":4697030146_0" function="internal">
        <lane id=":4697030146_0_0" index="0" disallow="tram rail_urban rail rail_electric rail_fast ship" speed="2.78" length="13.97" shape="431.79,216.52 430.40,230.42"/>
    </edge>
    <edge id=":4697030146_1" function="internal">
        <lane id=":4697030146_1_0" index="0" disallow="tram rail_urban rail rail_electric rail_fast ship" speed="2.78" length="13.98" shape="431.79,216.52 430.77,220.20 428.83,222.71 425.95,224.02 422.13,224.16"/>
    </edge>
    <edge id=":4697030146_2" function="internal">
        <lane id=":4697030146_2_0" index="0" disallow="tram rail_urban rail rail_electric rail_fast ship" speed="2.78" length="4.67" shape="431.79,216.52 430.84,217.61 430.00,217.91 429.25,217.41 428.61,216.12"/>
    </edge>
    <edge id=":4697030146_3" function="internal">
        <lane id=":4697030146_3_0" index="0" disallow="tram rail_urban rail rail_electric rail_fast ship" speed="2.78" length="8.89" shape="422.47,220.98 424.90,220.89 426.73,220.05 427.97,218.46 428.61,216.12"/>
    </edge>
    <edge id=":4697030146_4" function="internal">
        <lane id=":4697030146_4_0" index="0" disallow="tram rail_urban rail rail_electric rail_fast ship" speed="2.78" length="13.96" shape="422.47,220.98 426.17,221.91 428.73,223.79 430.14,226.63 430.40,230.42"/>
    </edge>
    <edge id=":4697030146_5" function="internal">
        <lane id=":4697030146_5_0" index="0" disallow="tram rail_urban rail rail_electric rail_fast ship" speed="2.78" length="4.67" shape="422.47,220.98 423.58,221.90 423.89,222.74 423.41,223.49 422.13,224.16"/>
    </edge>
    <edge id=":4697030146_6" function="internal">
        <lane id=":4697030146_6_0" index="0" disallow="tram rail_urban rail rail_electric rail_fast ship" speed="2.78" length="8.92" shape="427.21,230.19 427.04,227.77 426.14,225.96 424.50,224.76 422.13,224.16"/>
    </edge>
    <edge id=":4697030146_7" function="internal">
        <lane id=":4697030146_7_0" index="0" disallow="tram rail_urban rail rail_electric rail_fast ship" speed="2.78" length="14.14" shape="427.21,230.19 428.61,216.12"/>
    </edge>
    <edge id=":4697030146_8" function="internal">
        <lane id=":4697030146_8_0" index="0" disallow="tram rail_urban rail rail_electric rail_fast ship" speed="2.78" length="4.67" shape="427.21,230.19 428.09,229.05 428.92,228.71 429.69,229.17 430.40,230.42"/>
    </edge>
    <edge id=":4697030148_0" function="internal">
        <lane id=":4697030148_0_0" index="0" disallow="tram rail_urban rail rail_electric rail_fast ship" speed="22.22" length="13.96" shape="324.28,245.89 321.36,232.24"/>
    </edge>
    <edge id=":4697030148_1" function="internal">
        <lane id=":4697030148_1_0" index="0" disallow="tram rail_urban rail rail_electric rail_fast ship" speed="8.20" length="3.76" shape="324.28,245.89 324.19,242.13"/>
    </edge>
    <edge id=":4697030148_2" function="internal">
        <lane id=":4697030148_2_0" index="0" disallow="tram rail_urban rail rail_electric rail_fast ship" speed="3.65" length="1.44" shape="324.28,245.89 324.87,244.57"/>
    </edge>
    <edge id=":4697030148_9" function="internal">
        <lane id=":4697030148_9_0" index="0" disallow="tram rail_urban rail rail_electric rail_fast ship" speed="8.20" length="10.29" shape="324.19,242.13 325.32,239.14 327.67,236.92 331.25,235.48"/>
    </edge>
    <edge id=":4697030148_10" function="internal">
        <lane id=":4697030148_10_0" index="0" disallow="tram rail_urban rail rail_electric rail_fast ship" speed="3.65" length="3.23" shape="324.87,244.57 325.59,244.04 326.45,244.30 327.43,245.35"/>
    </edge>
    <edge id=":4697030148_3" function="internal">
        <lane id=":4697030148_3_0" index="0" disallow="tram rail_urban rail rail_electric rail_fast ship" speed="6.74" length="9.18" shape="332.03,238.58 329.68,239.52 328.13,240.97 327.38,242.91 327.43,245.35"/>
    </edge>
    <edge id=":4697030148_4" function="internal">
        <lane id=":4697030148_4_0" index="0" disallow="tram rail_urban rail rail_electric rail_fast ship" speed="8.00" length="14.14" shape="332.03,238.58 328.18,238.99 325.12,238.07 322.84,235.82 321.36,232.24"/>
    </edge>
    <edge id=":4697030148_5" function="internal">
        <lane id=":4697030148_5_0" index="0" disallow="tram rail_urban rail rail_electric rail_fast ship" speed="2.78" length="4.67" shape="332.03,238.58 330.67,238.10 330.09,237.42 330.28,236.55 331.25,235.48"/>
    </edge>
    <edge id=":4697030148_6" function="internal">
        <lane id=":4697030148_6_0" index="0" disallow="tram rail_urban rail rail_electric rail_fast ship" speed="6.51" length="9.00" shape="324.46,231.44 325.40,233.72 326.85,235.15 328.80,235.74 331.25,235.48"/>
    </edge>
    <edge id=":4697030148_7" function="internal">
        <lane id=":4697030148_7_0" index="0" disallow="tram rail_urban rail rail_electric rail_fast ship" speed="22.22" length="14.22" shape="324.46,231.44 327.43,245.35"/>
    </edge>
    <edge id=":4697030148_8" function="internal">
        <lane id=":4697030148_8_0" index="0" disallow="tram rail_urban rail rail_electric rail_fast ship" speed="3.65" length="1.44" shape="324.46,231.44 323.98,232.81"/>
    </edge>
    <edge id=":4697030148_11" function="internal">
        <lane id=":4697030148_11_0" index="0" disallow="tram rail_urban rail rail_electric rail_fast ship" speed="3.65" length="3.23" shape="323.98,232.81 323.31,233.39 322.43,233.20 321.36,232.24"/>
    </edge>
    <edge id=":4697030149_0" function="internal">
        <lane id=":4697030149_0_0" index="0" disallow="tram rail_urban rail rail_electric rail_fast ship" speed="7.66" length="9.91" shape="629.65,213.97 627.26,214.33 625.29,215.43 623.73,217.27 622.57,219.85"/>
    </edge>
    <edge id=":4697030149_1" function="internal">